<?xml version="1.0" encoding="UTF-8"?>

<!-- generated on 03/13/23 12:15:14 by Eclipse SUMO duarouter Version 1.8.0
<configuration xmlns:xsi="http://www.w3.org/2001/XMLSchema-instance" xsi:noNamespaceSchemaLocation="http://sumo.dlr.de/xsd/duarouterConfiguration.xsd">

    <input>
        <net-file value="C:\Users\smhan\Documents\PyGameUrbanSimulator\MyWorld\sumo_legacy\2023-03-13-12-15-04\osm.net.xml"/>
        <route-files value="C:\Users\smhan\Documents\PyGameUrbanSimulator\MyWorld\sumo_legacy\2023-03-13-12-15-04\osm.passenger.trips.xml"/>
    </input>

    <output>
        <output-file value="C:\Users\smhan\Documents\PyGameUrbanSimulator\MyWorld\sumo_legacy\2023-03-13-12-15-04\osm.passenger.trips.xml.tmp"/>
        <write-trips value="true"/>
    </output>

    <time>
        <begin value="0"/>
        <end value="3600"/>
    </time>

    <report>
        <no-warnings value="true"/>
        <ignore-errors value="true"/>
        <no-step-log value="true"/>
    </report>

</configuration>
-->

<routes xmlns:xsi="http://www.w3.org/2001/XMLSchema-instance" xsi:noNamespaceSchemaLocation="http://sumo.dlr.de/xsd/routes_file.xsd">
    <vType id="veh_passenger" vClass="passenger"/>
    <trip id="veh0" type="veh_passenger" depart="0.00" departLane="best" departSpeed="max" from="24914992" to="-111833185#0"/>
    <trip id="veh1" type="veh_passenger" depart="8.24" departLane="best" departSpeed="max" from="-874528353#4" to="-4611696#0"/>
    <trip id="veh2" type="veh_passenger" depart="16.48" departLane="best" from="34848160#2" to="251884680#1"/>
    <trip id="veh3" type="veh_passenger" depart="24.72" departLane="best" departSpeed="max" from="606078065#0" to="-156364570#0"/>
    <trip id="veh4" type="veh_passenger" depart="32.96" departLane="best" from="1151064403" to="-1119933622"/>
    <trip id="veh5" type="veh_passenger" depart="41.20" departLane="best" departSpeed="max" from="-4611706#1" to="188386313#1"/>
    <trip id="veh6" type="veh_passenger" depart="49.44" departLane="best" departSpeed="max" from="24914992" to="195411605#0"/>
    <trip id="veh7" type="veh_passenger" depart="57.68" departLane="best" departSpeed="max" from="-4611706#1" to="222328410"/>
    <trip id="veh8" type="veh_passenger" depart="65.92" departLane="best" from="4611696#1" to="-1101961737"/>
    <trip id="veh9" type="veh_passenger" depart="74.16" departLane="best" departSpeed="max" from="4611696#0" to="284493291#0"/>
    <trip id="veh10" type="veh_passenger" depart="82.40" departLane="best" from="1119837507" to="-23809670#0"/>
    <trip id="veh11" type="veh_passenger" depart="90.63" departLane="best" from="68647306#6" to="1119935543"/>
    <trip id="veh12" type="veh_passenger" depart="98.87" departLane="best" departSpeed="max" from="-195397561#7" to="-156364570#3"/>
    <trip id="veh13" type="veh_passenger" depart="107.11" departLane="best" departSpeed="max" from="4773029#0" to="23013165#2"/>
    <trip id="veh14" type="veh_passenger" depart="115.35" departLane="best" departSpeed="max" from="196850609" to="831694400"/>
    <trip id="veh15" type="veh_passenger" depart="123.59" departLane="best" departSpeed="max" from="1127597630" to="202156991"/>
    <trip id="veh16" type="veh_passenger" depart="131.83" departLane="best" from="465376239" to="23809670#1"/>
    <trip id="veh17" type="veh_passenger" depart="140.07" departLane="best" from="492340367#0" to="202817674#5"/>
    <trip id="veh18" type="veh_passenger" depart="148.31" departLane="best" from="340498982#4" to="-1127596842#0"/>
    <trip id="veh19" type="veh_passenger" depart="156.55" departLane="best" from="-4773029#2" to="1077923225#0"/>
    <trip id="veh20" type="veh_passenger" depart="164.79" departLane="best" from="-195397541#2" to="-4611696#5"/>
    <trip id="veh21" type="veh_passenger" depart="173.03" departLane="best" from="-195411605#0" to="-751595930"/>
    <trip id="veh22" type="veh_passenger" depart="181.27" departLane="best" from="24913519#1" to="1126244314#1"/>
    <trip id="veh23" type="veh_passenger" depart="189.51" departLane="best" from="1127596842#2" to="-4611693#0"/>
    <trip id="veh24" type="veh_passenger" depart="197.75" departLane="best" from="-874528353#0" to="751595929#1"/>
    <trip id="veh25" type="veh_passenger" depart="205.99" departLane="best" departSpeed="max" from="24914992" to="23121445#1"/>
    <trip id="veh26" type="veh_passenger" depart="214.23" departLane="best" from="-339201177#5" to="340498982#1"/>
    <trip id="veh27" type="veh_passenger" depart="222.47" departLane="best" from="-31313667#0" to="1127596842#2"/>
    <trip id="veh29" type="veh_passenger" depart="238.95" departLane="best" from="202156995#1" to="25294729"/>
    <trip id="veh30" type="veh_passenger" depart="247.19" departLane="best" departSpeed="max" from="4773029#0" to="4610476#3"/>
    <trip id="veh31" type="veh_passenger" depart="255.42" departLane="best" from="-492340367#0" to="-1123106322#1"/>
    <trip id="veh32" type="veh_passenger" depart="263.66" departLane="best" departSpeed="max" from="1116360587#0" to="-534588621#0"/>
    <trip id="veh33" type="veh_passenger" depart="271.90" departLane="best" from="-4611706#0" to="751595929#1"/>
    <trip id="veh34" type="veh_passenger" depart="280.14" departLane="best" departSpeed="max" from="24914992" to="1149417521#1"/>
    <trip id="veh35" type="veh_passenger" depart="288.38" departLane="best" departSpeed="max" from="606078065#0" to="169195795#1"/>
    <trip id="veh36" type="veh_passenger" depart="296.62" departLane="best" from="202157002#1" to="-4773029#2"/>
    <trip id="veh37" type="veh_passenger" depart="304.86" departLane="best" departSpeed="max" from="1151064386" to="-4611696#0"/>
    <trip id="veh38" type="veh_passenger" depart="313.10" departLane="best" from="882389494#1" to="190447767"/>
    <trip id="veh39" type="veh_passenger" depart="321.34" departLane="best" departSpeed="max" from="-195397561#7" to="-1127596842#0"/>
    <trip id="veh41" type="veh_passenger" depart="337.82" departLane="best" from="4611693#0" to="122820534#2"/>
    <trip id="veh42" type="veh_passenger" depart="346.06" departLane="best" from="882389494#1" to="195397561#3"/>
    <trip id="veh44" type="veh_passenger" depart="362.54" departLane="best" from="-1105574291#1" to="340498976#6"/>
    <trip id="veh45" type="veh_passenger" depart="370.78" departLane="best" from="339201177#2" to="195397561#6"/>
    <trip id="veh47" type="veh_passenger" depart="387.26" departLane="best" from="-202817674#2" to="153698394#3"/>
    <trip id="veh48" type="veh_passenger" depart="395.50" departLane="best" departSpeed="max" from="156364570#0" to="82654059#1"/>
    <trip id="veh49" type="veh_passenger" depart="403.74" departLane="best" from="541763975" to="-492340367#0"/>
    <trip id="veh52" type="veh_passenger" depart="428.45" departLane="best" from="4412868" to="195397561#6"/>
    <trip id="veh53" type="veh_passenger" depart="436.69" departLane="best" from="4610476#5" to="195397561#6"/>
    <trip id="veh54" type="veh_passenger" depart="444.93" departLane="best" from="-1101961674#1" to="1116360926#1"/>
    <trip id="veh55" type="veh_passenger" depart="453.17" departLane="best" from="-1119933622" to="68647306#5"/>
    <trip id="veh56" type="veh_passenger" depart="461.41" departLane="best" from="54781811#0" to="461526152#1"/>
    <trip id="veh57" type="veh_passenger" depart="469.65" departLane="best" from="1112054538" to="-1151064397#1"/>
    <trip id="veh58" type="veh_passenger" depart="477.89" departLane="best" from="541763975" to="8008608"/>
    <trip id="veh59" type="veh_passenger" depart="486.13" departLane="best" from="-195397561#0" to="171826984#2"/>
    <trip id="veh60" type="veh_passenger" depart="494.37" departLane="best" departSpeed="max" from="448810728" to="-195411605#1"/>
    <trip id="veh61" type="veh_passenger" depart="502.61" departLane="best" from="-8008608" to="534588621#1"/>
    <trip id="veh62" type="veh_passenger" depart="510.85" departLane="best" from="120675240#0" to="-4611693#1"/>
    <trip id="veh63" type="veh_passenger" depart="519.09" departLane="best" departSpeed="max" from="196850609" to="340498982#1"/>
    <trip id="veh64" type="veh_passenger" depart="527.33" departLane="best" from="-4611693#4" to="1111982484#0"/>
    <trip id="veh67" type="veh_passenger" depart="552.05" departLane="best" departSpeed="max" from="-222328410" to="-4611696#0"/>
    <trip id="veh68" type="veh_passenger" depart="560.29" departLane="best" from="111833185#1" to="222328410"/>
    <trip id="veh69" type="veh_passenger" depart="568.53" departLane="best" from="-492340367#0" to="-4611696#0"/>
    <trip id="veh71" type="veh_passenger" depart="585.01" departLane="best" from="-492340367#0" to="61584187#1"/>
    <trip id="veh72" type="veh_passenger" depart="593.25" departLane="best" from="490365295#0" to="-1151064405#0"/>
    <trip id="veh73" type="veh_passenger" depart="601.48" departLane="best" from="-54781811#0" to="24243092#2"/>
    <trip id="veh74" type="veh_passenger" depart="609.72" departLane="best" departSpeed="max" from="-4611706#1" to="-202817674#2"/>
    <trip id="veh75" type="veh_passenger" depart="617.96" departLane="best" from="66071373#1" to="202817674#0"/>
    <trip id="veh76" type="veh_passenger" depart="626.20" departLane="best" from="158023913#3" to="4610479#0"/>
    <trip id="veh77" type="veh_passenger" depart="634.44" departLane="best" departSpeed="max" from="4611696#0" to="-43156728#2"/>
    <trip id="veh78" type="veh_passenger" depart="642.68" departLane="best" from="120675240#0" to="169195795#3"/>
    <trip id="veh79" type="veh_passenger" depart="650.92" departLane="best" departSpeed="max" from="342968607#0" to="251884680#0"/>
    <trip id="veh80" type="veh_passenger" depart="659.16" departLane="best" from="831694400" to="-158023913#0"/>
    <trip id="veh81" type="veh_passenger" depart="667.40" departLane="best" departSpeed="max" from="1151064386" to="1119935543"/>
    <trip id="veh82" type="veh_passenger" depart="675.64" departLane="best" from="492340367#0" to="-474362271"/>
    <trip id="veh83" type="veh_passenger" depart="683.88" departLane="best" from="-4412868" to="15971197"/>
    <trip id="veh84" type="veh_passenger" depart="692.12" departLane="best" from="1151064403" to="-751595930"/>
    <trip id="veh85" type="veh_passenger" depart="700.36" departLane="best" from="-751595928#1" to="68647306#2"/>
    <trip id="veh86" type="veh_passenger" depart="708.60" departLane="best" from="153698394#3" to="490365295#0"/>
    <trip id="veh87" type="veh_passenger" depart="716.84" departLane="best" from="202156994#0" to="-1127596842#0"/>
    <trip id="veh88" type="veh_passenger" depart="725.08" departLane="best" from="882389497" to="465376240#0"/>
    <trip id="veh90" type="veh_passenger" depart="741.56" departLane="best" departSpeed="max" from="4773029#0" to="-24242882#0"/>
    <trip id="veh91" type="veh_passenger" depart="749.80" departLane="best" departSpeed="max" from="1127597630" to="874528353#2"/>
    <trip id="veh92" type="veh_passenger" depart="758.04" departLane="best" from="-8008608" to="4610479#0"/>
    <trip id="veh93" type="veh_passenger" depart="766.27" departLane="best" departSpeed="max" from="156364570#0" to="122820534#2"/>
    <trip id="veh94" type="veh_passenger" depart="774.51" departLane="best" from="68647306#6" to="882389494#1"/>
    <trip id="veh95" type="veh_passenger" depart="782.75" departLane="best" from="202156995#1" to="340498976#3"/>
    <trip id="veh96" type="veh_passenger" depart="790.99" departLane="best" departSpeed="max" from="-25294729" to="1101961735#1"/>
    <trip id="veh98" type="veh_passenger" depart="807.47" departLane="best" departSpeed="max" from="196850609" to="35578557#2"/>
    <trip id="veh99" type="veh_passenger" depart="815.71" departLane="best" from="-136571494#0" to="222328410"/>
    <trip id="veh100" type="veh_passenger" depart="823.95" departLane="best" from="190447766#1" to="474362272"/>
    <trip id="veh101" type="veh_passenger" depart="832.19" departLane="best" departSpeed="max" from="-25294729" to="82654059#1"/>
    <trip id="veh102" type="veh_passenger" depart="840.43" departLane="best" from="-195397541#2" to="-35578576#4"/>
    <trip id="veh103" type="veh_passenger" depart="848.67" departLane="best" from="-534588621#1" to="-195397561#0"/>
    <trip id="veh104" type="veh_passenger" depart="856.91" departLane="best" departSpeed="max" from="606078065#0" to="-474362271"/>
    <trip id="veh105" type="veh_passenger" depart="865.15" departLane="best" from="195397541#4" to="72157174#1"/>
    <trip id="veh106" type="veh_passenger" depart="873.39" departLane="best" from="-4611696#3" to="340498976#2"/>
    <trip id="veh107" type="veh_passenger" depart="881.63" departLane="best" from="284493291#0" to="1101961736#0"/>
    <trip id="veh108" type="veh_passenger" depart="889.87" departLane="best" departSpeed="max" from="1116360587#0" to="35578576#0"/>
    <trip id="veh109" type="veh_passenger" depart="898.11" departLane="best" from="-15977422#1" to="-4611693#4"/>
    <trip id="veh110" type="veh_passenger" depart="906.35" departLane="best" from="-8008608" to="72157174#1"/>
    <trip id="veh111" type="veh_passenger" depart="914.59" departLane="best" from="1127596842#2" to="-23809670#0"/>
    <trip id="veh113" type="veh_passenger" depart="931.07" departLane="best" departSpeed="max" from="24914992" to="-1101961737"/>
    <trip id="veh114" type="veh_passenger" depart="939.30" departLane="best" from="4611698" to="1101961736#0"/>
    <trip id="veh115" type="veh_passenger" depart="947.54" departLane="best" from="28016312" to="751595929#1"/>
    <trip id="veh116" type="veh_passenger" depart="955.78" departLane="best" from="-23121445#2" to="-195397541#3"/>
    <trip id="veh117" type="veh_passenger" depart="964.02" departLane="best" departSpeed="max" from="-202156991" to="202156994#0"/>
    <trip id="veh118" type="veh_passenger" depart="972.26" departLane="best" departSpeed="max" from="-874528353#4" to="23013165#2"/>
    <trip id="veh119" type="veh_passenger" depart="980.50" departLane="best" from="169195795#2" to="61584187#1"/>
    <trip id="veh120" type="veh_passenger" depart="988.74" departLane="best" departSpeed="max" from="4773029#0" to="-156364570#0"/>
    <trip id="veh121" type="veh_passenger" depart="996.98" departLane="best" from="120675240#0" to="-751595930"/>
    <trip id="veh122" type="veh_passenger" depart="1005.22" departLane="best" from="-1101961735#0" to="43231842#3"/>
    <trip id="veh123" type="veh_passenger" depart="1013.46" departLane="best" from="24913519#1" to="-4773029#2"/>
    <trip id="veh124" type="veh_passenger" depart="1021.70" departLane="best" from="35578559" to="202156991"/>
    <trip id="veh125" type="veh_passenger" depart="1029.94" departLane="best" from="120675240#4" to="-1105574291#0"/>
    <trip id="veh126" type="veh_passenger" depart="1038.18" departLane="best" from="-194069450#1" to="541763975"/>
    <trip id="veh127" type="veh_passenger" depart="1046.42" departLane="best" departSpeed="max" from="606078065#0" to="195411605#1"/>
    <trip id="veh128" type="veh_passenger" depart="1054.66" departLane="best" departSpeed="max" from="-25294729" to="-195411605#1"/>
    <trip id="veh129" type="veh_passenger" depart="1062.90" departLane="best" from="4611693#2" to="4773465#1"/>
    <trip id="veh130" type="veh_passenger" depart="1071.14" departLane="best" departSpeed="max" from="606078065#0" to="-4611693#0"/>
    <trip id="veh131" type="veh_passenger" depart="1079.38" departLane="best" from="-751595928#1" to="-15971189"/>
    <trip id="veh132" type="veh_passenger" depart="1087.62" departLane="best" from="4610476#5" to="54781811#0"/>
    <trip id="veh134" type="veh_passenger" depart="1104.10" departLane="best" departSpeed="max" from="-25294729" to="68647306#5"/>
    <trip id="veh135" type="veh_passenger" depart="1112.33" departLane="best" from="534588621#0" to="831694400"/>
    <trip id="veh136" type="veh_passenger" depart="1120.57" departLane="best" from="4611696#4" to="541763975"/>
    <trip id="veh137" type="veh_passenger" depart="1128.81" departLane="best" departSpeed="max" from="111833185#0" to="68647306#6"/>
    <trip id="veh138" type="veh_passenger" depart="1137.05" departLane="best" departSpeed="max" from="4611696#0" to="490365295#0"/>
    <trip id="veh139" type="veh_passenger" depart="1145.29" departLane="best" from="4611696#4" to="-534588621#0"/>
    <trip id="veh140" type="veh_passenger" depart="1153.53" departLane="best" from="4610480" to="-194069450#1"/>
    <trip id="veh141" type="veh_passenger" depart="1161.77" departLane="best" from="54048862#2" to="4773465#1"/>
    <trip id="veh142" type="veh_passenger" depart="1170.01" departLane="best" from="-465376254#2" to="4611699#1"/>
    <trip id="veh143" type="veh_passenger" depart="1178.25" departLane="best" departSpeed="max" from="158023913#0" to="1105574291#0"/>
    <trip id="veh144" type="veh_passenger" depart="1186.49" departLane="best" from="-1123150361#1" to="-43231842#0"/>
    <trip id="veh145" type="veh_passenger" depart="1194.73" departLane="best" departSpeed="max" from="111833185#0" to="490365295#0"/>
    <trip id="veh148" type="veh_passenger" depart="1219.45" departLane="best" departSpeed="max" from="66071379#0" to="-195397541#3"/>
    <trip id="veh150" type="veh_passenger" depart="1235.93" departLane="best" departSpeed="max" from="-202156991" to="153698394#3"/>
    <trip id="veh151" type="veh_passenger" depart="1244.17" departLane="best" departSpeed="max" from="342968607#0" to="1111982484#1"/>
    <trip id="veh152" type="veh_passenger" depart="1252.41" departLane="best" departSpeed="max" from="23809670#0" to="190447768#1"/>
    <trip id="veh153" type="veh_passenger" depart="1260.65" departLane="best" from="114667396#0" to="202817674#4"/>
    <trip id="veh154" type="veh_passenger" depart="1268.89" departLane="best" departSpeed="max" from="-751595929#2" to="339201177#2"/>
    <trip id="veh155" type="veh_passenger" depart="1277.12" departLane="best" departSpeed="max" from="196850609" to="340498976#3"/>
    <trip id="veh156" type="veh_passenger" depart="1285.36" departLane="best" from="35578576#0" to="24913519#1"/>
    <trip id="veh157" type="veh_passenger" depart="1293.60" departLane="best" from="1127592486#1" to="-1151064405#0"/>
    <trip id="veh158" type="veh_passenger" depart="1301.84" departLane="best" from="28016312" to="1119837993#0"/>
    <trip id="veh159" type="veh_passenger" depart="1310.08" departLane="best" departSpeed="max" from="1116360587#0" to="465376254#0"/>
    <trip id="veh160" type="veh_passenger" depart="1318.32" departLane="best" departSpeed="max" from="342968607#0" to="1101961736#0"/>
    <trip id="veh161" type="veh_passenger" depart="1326.56" departLane="best" from="1112054538" to="1151064405#1"/>
    <trip id="veh162" type="veh_passenger" depart="1334.80" departLane="best" departSpeed="max" from="1151064386" to="1101961674#1"/>
    <trip id="veh163" type="veh_passenger" depart="1343.04" departLane="best" departSpeed="max" from="-222328410" to="122820534#1"/>
    <trip id="veh164" type="veh_passenger" depart="1351.28" departLane="best" departSpeed="max" from="606078065#0" to="23121445#5"/>
    <trip id="veh165" type="veh_passenger" depart="1359.52" departLane="best" from="1105574291#2" to="202156991"/>
    <trip id="veh166" type="veh_passenger" depart="1367.76" departLane="best" from="-1101961674#1" to="-882389497"/>
    <trip id="veh167" type="veh_passenger" depart="1376.00" departLane="best" from="122820534#1" to="202817674#6"/>
    <trip id="veh168" type="veh_passenger" depart="1384.24" departLane="best" departSpeed="max" from="24914992" to="169195795#3"/>
    <trip id="veh169" type="veh_passenger" depart="1392.48" departLane="best" from="153698394#3" to="-4611693#4"/>
    <trip id="veh170" type="veh_passenger" depart="1400.72" departLane="best" from="158023913#3" to="61584187#0"/>
    <trip id="veh171" type="veh_passenger" depart="1408.96" departLane="best" from="-195397561#0" to="194069450#0"/>
    <trip id="veh172" type="veh_passenger" depart="1417.20" departLane="best" from="24243092#2" to="1119935543"/>
    <trip id="veh173" type="veh_passenger" depart="1425.44" departLane="best" from="4611699#0" to="35578576#0"/>
    <trip id="veh174" type="veh_passenger" depart="1433.68" departLane="best" from="284493291#0" to="-4611696#0"/>
    <trip id="veh175" type="veh_passenger" depart="1441.92" departLane="best" from="-4611693#1" to="-111833185#0"/>
    <trip id="veh176" type="veh_passenger" depart="1450.15" departLane="best" departSpeed="max" from="-66071370" to="171423001"/>
    <trip id="veh177" type="veh_passenger" depart="1458.39" departLane="best" departSpeed="max" from="4773029#0" to="-120675240#2"/>
    <trip id="veh179" type="veh_passenger" depart="1474.87" departLane="best" from="-4610480" to="284493291#0"/>
    <trip id="veh180" type="veh_passenger" depart="1483.11" departLane="best" from="169999355#1" to="-474362271"/>
    <trip id="veh181" type="veh_passenger" depart="1491.35" departLane="best" departSpeed="max" from="24914992" to="-1101961736#0"/>
    <trip id="veh182" type="veh_passenger" depart="1499.59" departLane="best" from="4067932#1" to="43231842#3"/>
    <trip id="veh183" type="veh_passenger" depart="1507.83" departLane="best" departSpeed="max" from="-202156991" to="136571494#0"/>
    <trip id="veh184" type="veh_passenger" depart="1516.07" departLane="best" from="-38208961" to="82654059#1"/>
    <trip id="veh185" type="veh_passenger" depart="1524.31" departLane="best" from="194073677#3" to="-1127596842#0"/>
    <trip id="veh186" type="veh_passenger" depart="1532.55" departLane="best" from="-751595928#1" to="465376254#3"/>
    <trip id="veh187" type="veh_passenger" depart="1540.79" departLane="best" from="156364570#1" to="4611696#1"/>
    <trip id="veh188" type="veh_passenger" depart="1549.03" departLane="best" from="28251222#1" to="874528353#2"/>
    <trip id="veh189" type="veh_passenger" depart="1557.27" departLane="best" from="23121445#4" to="82654059#0"/>
    <trip id="veh190" type="veh_passenger" depart="1565.51" departLane="best" departSpeed="max" from="606078065#0" to="23121445#3"/>
    <trip id="veh191" type="veh_passenger" depart="1573.75" departLane="best" from="465376239" to="202156991"/>
    <trip id="veh192" type="veh_passenger" depart="1581.99" departLane="best" departSpeed="max" from="606078065#0" to="340498988#0"/>
    <trip id="veh193" type="veh_passenger" depart="1590.23" departLane="best" from="15971189" to="-4773029#1"/>
    <trip id="veh195" type="veh_passenger" depart="1606.71" departLane="best" departSpeed="max" from="448810728" to="195397541#3"/>
    <trip id="veh196" type="veh_passenger" depart="1614.94" departLane="best" from="24242882#1" to="-751595928#1"/>
    <trip id="veh197" type="veh_passenger" depart="1623.18" departLane="best" from="-195397541#0" to="-882389497"/>
    <trip id="veh198" type="veh_passenger" depart="1631.42" departLane="best" departSpeed="max" from="-874528353#4" to="1113726463"/>
    <trip id="veh199" type="veh_passenger" depart="1639.66" departLane="best" departSpeed="max" from="196850609" to="-202817674#5"/>
    <trip id="veh200" type="veh_passenger" depart="1647.90" departLane="best" from="-534588621#0" to="28251222#1"/>
    <trip id="veh201" type="veh_passenger" depart="1656.14" departLane="best" from="340498982#4" to="-1151064397#1"/>
    <trip id="veh202" type="veh_passenger" depart="1664.38" departLane="best" departSpeed="max" from="1151064397#0" to="-4610480"/>
    <trip id="veh203" type="veh_passenger" depart="1672.62" departLane="best" from="1151064402#0" to="61584187#1"/>
    <trip id="veh204" type="veh_passenger" depart="1680.86" departLane="best" from="4773465#1" to="43231842#1"/>
    <trip id="veh205" type="veh_passenger" depart="1689.10" departLane="best" from="1144362247#1" to="-1101961736#0"/>
    <trip id="veh206" type="veh_passenger" depart="1697.34" departLane="best" from="1126244314#0" to="35578576#3"/>
    <trip id="veh207" type="veh_passenger" depart="1705.58" departLane="best" from="4773029#2" to="82654059#1"/>
    <trip id="veh208" type="veh_passenger" depart="1713.82" departLane="best" from="1151064402#0" to="35578557#2"/>
    <trip id="veh209" type="veh_passenger" depart="1722.06" departLane="best" departSpeed="max" from="-4611706#1" to="-4611696#0"/>
    <trip id="veh210" type="veh_passenger" depart="1730.30" departLane="best" from="136571494#2" to="-1119854969#0"/>
    <trip id="veh211" type="veh_passenger" depart="1738.54" departLane="best" departSpeed="max" from="111833185#0" to="251884680#1"/>
    <trip id="veh212" type="veh_passenger" depart="1746.78" departLane="best" departSpeed="max" from="1151064386" to="-24242882#0"/>
    <trip id="veh213" type="veh_passenger" depart="1755.02" departLane="best" departSpeed="max" from="158023913#0" to="-195411605#1"/>
    <trip id="veh215" type="veh_passenger" depart="1771.50" departLane="best" from="1149417521#1" to="202156995#1"/>
    <trip id="veh217" type="veh_passenger" depart="1787.97" departLane="best" from="-23121445#2" to="169195795#2"/>
    <trip id="veh218" type="veh_passenger" depart="1796.21" departLane="best" departSpeed="max" from="-4611706#1" to="111833185#1"/>
    <trip id="veh219" type="veh_passenger" depart="1804.45" departLane="best" from="4412868" to="1127596842#2"/>
    <trip id="veh220" type="veh_passenger" depart="1812.69" departLane="best" from="4067932#1" to="461526152#1"/>
    <trip id="veh221" type="veh_passenger" depart="1820.93" departLane="best" from="-1119933622" to="195397561#6"/>
    <trip id="veh222" type="veh_passenger" depart="1829.17" departLane="best" departSpeed="max" from="24914992" to="4610476#5"/>
    <trip id="veh223" type="veh_passenger" depart="1837.41" departLane="best" departSpeed="max" from="24914992" to="35578576#3"/>
    <trip id="veh224" type="veh_passenger" depart="1845.65" departLane="best" from="-1119933622" to="-23121445#5"/>
    <trip id="veh225" type="veh_passenger" depart="1853.89" departLane="best" from="202817674#0" to="-4611696#0"/>
    <trip id="veh226" type="veh_passenger" depart="1862.13" departLane="best" from="4067932#0" to="-195397541#3"/>
    <trip id="veh227" type="veh_passenger" depart="1870.37" departLane="best" from="4611699#0" to="82654059#1"/>
    <trip id="veh228" type="veh_passenger" depart="1878.61" departLane="best" departSpeed="max" from="-202156991" to="-111833185#1"/>
    <trip id="veh229" type="veh_passenger" depart="1886.85" departLane="best" from="1113726463" to="251884680#1"/>
    <trip id="veh230" type="veh_passenger" depart="1895.09" departLane="best" from="340498988#0" to="-120675240#4"/>
    <trip id="veh232" type="veh_passenger" depart="1911.57" departLane="best" from="-195411605#0" to="4412868"/>
    <trip id="veh233" type="veh_passenger" depart="1919.81" departLane="best" from="4773029#1" to="23013165#1"/>
    <trip id="veh234" type="veh_passenger" depart="1928.05" departLane="best" departSpeed="max" from="-222328410" to="874528353#1"/>
    <trip id="veh235" type="veh_passenger" depart="1936.29" departLane="best" from="4610479#0" to="1119935543"/>
    <trip id="veh236" type="veh_passenger" depart="1944.53" departLane="best" from="122820534#1" to="1126465703#1"/>
    <trip id="veh237" type="veh_passenger" depart="1952.77" departLane="best" from="190447768#1" to="1119935543"/>
    <trip id="veh238" type="veh_passenger" depart="1961.00" departLane="best" from="-195411606" to="82654059#1"/>
    <trip id="veh239" type="veh_passenger" depart="1969.24" departLane="best" from="24913519#1" to="4611706#1"/>
    <trip id="veh240" type="veh_passenger" depart="1977.48" departLane="best" from="340498982#5" to="153698394#3"/>
    <trip id="veh241" type="veh_passenger" depart="1985.72" departLane="best" departSpeed="max" from="342968607#0" to="82654059#1"/>
    <trip id="veh242" type="veh_passenger" depart="1993.96" departLane="best" departSpeed="max" from="-874528353#4" to="4611698"/>
    <trip id="veh243" type="veh_passenger" depart="2002.20" departLane="best" departSpeed="max" from="196850609" to="171826984#2"/>
    <trip id="veh244" type="veh_passenger" depart="2010.44" departLane="best" from="136571494#1" to="340498982#1"/>
    <trip id="veh245" type="veh_passenger" depart="2018.68" departLane="best" from="-874528353#1" to="465376255#2"/>
    <trip id="veh246" type="veh_passenger" depart="2026.92" departLane="best" from="465376239" to="-156364570#0"/>
    <trip id="veh247" type="veh_passenger" depart="2035.16" departLane="best" departSpeed="max" from="158023913#0" to="23121445#2"/>
    <trip id="veh248" type="veh_passenger" depart="2043.40" departLane="best" departSpeed="max" from="1127597630" to="-1119854969#0"/>
    <trip id="veh249" type="veh_passenger" depart="2051.64" departLane="best" from="4773029#1" to="-339201177#4"/>
    <trip id="veh250" type="veh_passenger" depart="2059.88" departLane="best" departSpeed="max" from="-4611706#1" to="4611693#2"/>
    <trip id="veh251" type="veh_passenger" depart="2068.12" departLane="best" from="1119837507" to="541763974"/>
    <trip id="veh252" type="veh_passenger" depart="2076.36" departLane="best" from="340498982#1" to="-751595930"/>
    <trip id="veh253" type="veh_passenger" depart="2084.60" departLane="best" from="-1105574291#0" to="8008608"/>
    <trip id="veh254" type="veh_passenger" depart="2092.84" departLane="best" from="169195795#2" to="4067932#0"/>
    <trip id="veh256" type="veh_passenger" depart="2109.32" departLane="best" from="169195795#3" to="4611693#0"/>
    <trip id="veh257" type="veh_passenger" depart="2117.56" departLane="best" departSpeed="max" from="-195397561#7" to="-4611696#0"/>
    <trip id="veh258" type="veh_passenger" depart="2125.79" departLane="best" from="340498976#6" to="1105574291#1"/>
    <trip id="veh259" type="veh_passenger" depart="2134.03" departLane="best" from="23013165#1" to="171423001"/>
    <trip id="veh260" type="veh_passenger" depart="2142.27" departLane="best" from="195411604" to="136571494#0"/>