<?xml version="1.0" encoding="UTF-8"?>

<!-- generated on 03/13/23 12:15:10 by Eclipse SUMO netconvert Version 1.8.0
<configuration xmlns:xsi="http://www.w3.org/2001/XMLSchema-instance" xsi:noNamespaceSchemaLocation="http://sumo.dlr.de/xsd/netconvertConfiguration.xsd">

    <input>
        <type-files value="C:\Program%20Files%20(x86)\Eclipse\Sumo\data\typemap\osmNetconvert.typ.xml"/>
        <osm-files value="osm_bbox.osm.xml"/>
    </input>

    <output>
        <output-file value="osm.net.xml"/>
        <output.street-names value="true"/>
        <output.original-names value="true"/>
    </output>

    <projection>
        <proj.utm value="true"/>
    </projection>

    <processing>
        <geometry.remove value="true"/>
        <roundabouts.guess value="true"/>
    </processing>

    <tls_building>
        <tls.discard-simple value="true"/>
        <tls.join value="true"/>
        <tls.guess-signals value="true"/>
        <tls.default-type value="actuated"/>
    </tls_building>

    <ramp_guessing>
        <ramps.guess value="true"/>
    </ramp_guessing>

    <junctions>
        <junctions.join value="true"/>
        <junctions.corner-detail value="5"/>
    </junctions>

    <pedestrian>
        <sidewalks.guess value="true"/>
        <crossings.guess value="true"/>
    </pedestrian>

    <report>
        <verbose value="true"/>
        <aggregate-warnings value="5"/>
    </report>

</configuration>
-->

<net version="1.6" junctionCornerDetail="5" walkingareas="true" limitTurnSpeed="5.50" xmlns:xsi="http://www.w3.org/2001/XMLSchema-instance" xsi:noNamespaceSchemaLocation="http://sumo.dlr.de/xsd/net_file.xsd">

    <location netOffset="-390301.53,-5819330.29" convBoundary="0.00,0.00,1783.81,1320.39" origBoundary="13.372213,52.511850,13.409522,52.524965" projParameter="+proj=utm +zone=33 +ellps=WGS84 +datum=WGS84 +units=m +no_defs"/>

    <type id="highway.bridleway" priority="1" numLanes="1" speed="2.78" allow="pedestrian" oneway="1" width="2.00"/>
    <type id="highway.bus_guideway" priority="1" numLanes="1" speed="27.78" allow="bus" oneway="1"/>
    <type id="highway.cycleway" priority="1" numLanes="1" speed="8.33" allow="bicycle" oneway="0" width="1.00"/>
    <type id="highway.footway" priority="1" numLanes="1" speed="2.78" allow="pedestrian" oneway="1" width="2.00"/>
    <type id="highway.ford" priority="1" numLanes="1" speed="2.78" allow="army" oneway="0"/>
    <type id="highway.living_street" priority="2" numLanes="1" speed="2.78" disallow="tram rail_urban rail rail_electric rail_fast ship" oneway="0"/>
    <type id="highway.motorway" priority="14" numLanes="2" speed="39.44" allow="private emergency authority army vip passenger hov taxi bus coach delivery truck trailer motorcycle evehicle custom1 custom2" oneway="1"/>
    <type id="highway.motorway_link" priority="9" numLanes="1" speed="22.22" allow="private emergency authority army vip passenger hov taxi bus coach delivery truck trailer motorcycle evehicle custom1 custom2" oneway="1"/>
    <type id="highway.path" priority="1" numLanes="1" speed="2.78" allow="pedestrian bicycle" oneway="0" width="2.00"/>
    <type id="highway.pedestrian" priority="1" numLanes="1" speed="2.78" allow="pedestrian" oneway="1" width="2.00"/>
    <type id="highway.primary" priority="12" numLanes="2" speed="27.78" disallow="tram rail_urban rail rail_electric rail_fast ship" oneway="0"/>
    <type id="highway.primary_link" priority="7" numLanes="1" speed="22.22" disallow="tram rail_urban rail rail_electric rail_fast ship" oneway="0"/>
    <type id="highway.raceway" priority="15" numLanes="2" speed="83.33" allow="vip" oneway="0"/>
    <type id="highway.residential" priority="3" numLanes="1" speed="13.89" disallow="tram rail_urban rail rail_electric rail_fast ship" oneway="0"/>
    <type id="highway.secondary" priority="11" numLanes="1" speed="27.78" disallow="tram rail_urban rail rail_electric rail_fast ship" oneway="0"/>
    <type id="highway.secondary_link" priority="6" numLanes="1" speed="22.22" disallow="tram rail_urban rail rail_electric rail_fast ship" oneway="0"/>
    <type id="highway.service" priority="1" numLanes="1" speed="5.56" allow="pedestrian delivery bicycle" oneway="0"/>
    <type id="highway.stairs" priority="1" numLanes="1" speed="1.39" allow="pedestrian" oneway="1" width="2.00"/>
    <type id="highway.step" priority="1" numLanes="1" speed="1.39" allow="pedestrian" oneway="1" width="2.00"/>
    <type id="highway.steps" priority="1" numLanes="1" speed="1.39" allow="pedestrian" oneway="1" width="2.00"/>
    <type id="highway.tertiary" priority="10" numLanes="1" speed="22.22" disallow="tram rail_urban rail rail_electric rail_fast ship" oneway="0"/>
    <type id="highway.tertiary_link" priority="5" numLanes="1" speed="22.22" disallow="tram rail_urban rail rail_electric rail_fast ship" oneway="0"/>
    <type id="highway.track" priority="1" numLanes="1" speed="5.56" allow="pedestrian motorcycle moped bicycle" oneway="0"/>
    <type id="highway.trunk" priority="13" numLanes="2" speed="27.78" disallow="pedestrian bicycle tram rail_urban rail rail_electric rail_fast ship" oneway="0"/>
    <type id="highway.trunk_link" priority="8" numLanes="1" speed="22.22" disallow="pedestrian bicycle tram rail_urban rail rail_electric rail_fast ship" oneway="0"/>
    <type id="highway.unclassified" priority="4" numLanes="1" speed="13.89" disallow="tram rail_urban rail rail_electric rail_fast ship" oneway="0"/>
    <type id="highway.unsurfaced" priority="1" numLanes="1" speed="8.33" disallow="tram rail_urban rail rail_electric rail_fast ship" oneway="0"/>
    <type id="railway.highspeed" priority="21" numLanes="1" speed="69.44" allow="rail_fast" oneway="1"/>
    <type id="railway.light_rail" priority="19" numLanes="1" speed="27.78" allow="rail_urban" oneway="1"/>
    <type id="railway.preserved" priority="16" numLanes="1" speed="27.78" allow="rail" oneway="1"/>
    <type id="railway.rail" priority="20" numLanes="1" speed="44.44" allow="rail" oneway="1"/>
    <type id="railway.subway" priority="18" numLanes="1" speed="27.78" allow="rail_urban" oneway="1"/>
    <type id="railway.tram" priority="17" numLanes="1" speed="13.89" allow="tram" oneway="1"/>

    <edge id=":10008135954_0" function="internal">
        <lane id=":10008135954_0_0" index="0" disallow="pedestrian tram rail_urban rail rail_electric rail_fast ship" speed="8.33" length="7.82" shape="703.82,722.56 703.69,724.09 703.55,726.55 703.55,728.96 703.86,730.34"/>
    </edge>
    <edge id=":10008135954_1" function="internal">
        <lane id=":10008135954_1_0" index="0" allow="bicycle" speed="5.56" length="7.77" width="2.00" shape="703.82,722.56 703.44,724.47 702.66,726.17 701.46,727.66 699.86,728.93"/>
    </edge>
    <edge id=":10008135954_2" function="internal">
        <lane id=":10008135954_2_0" index="0" allow="bicycle" speed="5.56" length="6.22" shape="698.78,727.25 699.59,727.12 700.71,727.59 702.13,728.66 703.86,730.34"/>
    </edge>
    <edge id=":10008135954_3" function="internal">
        <lane id=":10008135954_3_0" index="0" allow="pedestrian bicycle" speed="2.78" length="2.92" width="2.00" shape="698.78,727.25 699.68,727.26 700.16,727.55 700.22,728.10 699.86,728.93"/>
    </edge>
    <edge id=":10008135954_c0" function="crossing" crossingEdges="122820534#1">
        <lane id=":10008135954_c0_0" index="0" allow="pedestrian" speed="1.00" length="3.20" width="4.00" shape="702.05,724.42 705.24,724.69"/>
    </edge>
    <edge id=":10008135954_w0" function="walkingarea">
        <lane id=":10008135954_w0_0" index="0" allow="pedestrian" speed="1.00" length="4.96" width="4.00" shape="706.30,730.58 707.74,729.20 707.41,722.87 705.41,722.70 705.31,723.48 705.12,724.67 704.92,726.07 704.79,727.44 704.80,728.57"/>
    </edge>
    <edge id=":10008135954_w1" function="walkingarea">
        <lane id=":10008135954_w1_0" index="0" allow="pedestrian" speed="1.00" length="3.78" width="4.00" shape="702.22,722.42 698.23,726.41 699.32,728.09 699.32,728.09 700.40,729.77 702.37,730.86 702.14,729.90 702.01,728.59 701.98,726.90 702.05,724.85"/>
    </edge>
    <edge id=":10008135958_0" function="internal">
        <lane id=":10008135958_0_0" index="0" allow="pedestrian bicycle" speed="2.78" length="10.84" width="2.00" shape="675.72,747.99 673.34,750.07 671.67,751.74 670.56,753.71 669.86,756.69"/>
    </edge>
    <edge id=":10008135958_1" function="internal">
        <lane id=":10008135958_1_0" index="0" allow="pedestrian bicycle" speed="2.78" length="11.97" width="2.00" shape="675.72,747.99 672.47,750.42 670.35,750.78 669.35,749.06 669.48,745.29"/>
    </edge>
    <edge id=":10008135958_2" function="internal">
        <lane id=":10008135958_2_0" index="0" allow="pedestrian bicycle" speed="2.78" length="2.97" width="2.00" shape="675.72,747.99 674.85,748.29 674.29,748.18 674.04,747.67 674.10,746.76"/>
    </edge>
    <edge id=":10008135958_3" function="internal">
        <lane id=":10008135958_3_0" index="0" allow="pedestrian bicycle" speed="2.78" length="5.11" width="2.00" shape="671.46,745.57 671.40,747.19 671.82,747.93 672.72,747.79 674.10,746.76"/>
    </edge>
    <edge id=":10008135958_4" function="internal">
        <lane id=":10008135958_4_0" index="0" allow="pedestrian bicycle" speed="2.78" length="11.23" width="2.00" shape="671.46,745.57 669.86,756.69"/>
    </edge>
    <edge id=":10008135958_5" function="internal">
        <lane id=":10008135958_5_0" index="0" allow="pedestrian bicycle" speed="2.78" length="2.92" width="2.00" shape="671.46,745.57 670.85,746.24 670.32,746.42 669.86,746.10 669.48,745.29"/>
    </edge>
    <edge id=":10008135958_6" function="internal">
        <lane id=":10008135958_6_0" index="0" allow="pedestrian bicycle" speed="2.78" length="11.23" width="2.00" shape="667.88,756.41 669.48,745.29"/>
    </edge>
    <edge id=":10008135958_7" function="internal">
        <lane id=":10008135958_7_0" index="0" allow="pedestrian bicycle" speed="2.78" length="11.81" width="2.00" shape="667.88,756.41 668.63,753.28 669.87,750.99 671.67,748.99 674.10,746.76"/>
    </edge>
    <edge id=":10008135958_8" function="internal">
        <lane id=":10008135958_8_0" index="0" allow="pedestrian bicycle" speed="2.78" length="2.92" width="2.00" shape="667.88,756.41 668.48,755.73 669.01,755.56 669.47,755.88 669.86,756.69"/>
    </edge>
    <edge id=":10008135958_w0" function="walkingarea">
        <lane id=":10008135958_w0_0" index="0" allow="pedestrian" speed="1.00" length="7.67" width="2.00" shape="676.39,748.73 675.05,747.25 674.77,747.50 673.43,746.02 672.45,745.71 670.47,745.43 670.47,745.43 668.49,745.14 666.89,756.26 668.87,756.55 668.87,756.55 670.85,756.83 674.77,750.14 673.50,751.22 672.52,752.20 671.79,753.31 671.25,754.77"/>
    </edge>
    <edge id=":10041232967_w0" function="walkingarea">
        <lane id=":10041232967_w0_0" index="0" allow="pedestrian" speed="1.00" length="3.34" width="2.00" shape="1655.33,676.59 1655.66,674.62 1651.92,674.75 1652.40,676.70 1654.71,676.49 1654.24,676.43 1653.86,676.42 1653.47,676.46 1653.01,676.55"/>
    </edge>
    <edge id=":10053209425_w0" function="walkingarea">
        <lane id=":10053209425_w0_0" index="0" allow="pedestrian" speed="1.00" length="2.40" width="2.00" shape="1359.98,923.43 1358.21,922.49 1357.50,920.58 1356.58,922.36 1357.50,923.84 1359.26,924.78"/>
    </edge>
    <edge id=":10053209426_0" function="internal">
        <lane id=":10053209426_0_0" index="0" allow="tram" speed="13.89" length="2.72" shape="1339.25,912.26 1337.67,914.47"/>
    </edge>
    <edge id=":10053209426_c0" function="crossing" crossingEdges="1052827282#2">
        <lane id=":10053209426_c0_0" index="0" allow="pedestrian" speed="1.00" length="3.20" width="4.00" shape="1336.79,912.96 1339.39,914.82"/>
    </edge>
    <edge id=":10053209426_w0" function="walkingarea">
        <lane id=":10053209426_w0_0" index="0" allow="pedestrian" speed="1.00" length="3.00" width="4.00" shape="1338.98,915.40 1340.60,916.56 1343.45,915.62 1344.36,913.84 1342.28,914.21 1340.65,913.05 1340.55,913.19 1338.23,916.45"/>
    </edge>
    <edge id=":10053209426_w1" function="walkingarea">
        <lane id=":10053209426_w1_0" index="0" allow="pedestrian" speed="1.00" length="1.78" width="4.00" shape="1335.63,914.59 1337.95,911.33 1338.26,910.60 1337.24,912.32"/>
    </edge>
    <edge id=":10053209427_0" function="internal">
        <lane id=":10053209427_0_0" index="0" allow="tram" speed="13.89" length="2.30" shape="1334.92,912.69 1335.96,910.64"/>
    </edge>
    <edge id=":10053209427_c0" function="crossing" crossingEdges="23960874#1">
        <lane id=":10053209427_c0_0" index="0" allow="pedestrian" speed="1.00" length="3.20" width="4.00" shape="1333.50,911.34 1336.11,913.20"/>
    </edge>
    <edge id=":10053209427_w0" function="walkingarea">
        <lane id=":10053209427_w0_0" index="0" allow="pedestrian" speed="1.00" length="2.35" width="4.00" shape="1337.07,912.22 1338.09,910.50 1337.27,911.57 1337.02,911.95 1336.86,912.26 1336.75,912.52 1336.65,912.79 1336.52,913.10"/>
    </edge>
    <edge id=":10053209427_w1" function="walkingarea">
        <lane id=":10053209427_w1_0" index="0" allow="pedestrian" speed="1.00" length="1.90" width="4.00" shape="1332.34,912.97 1334.66,909.71 1334.50,909.93 1332.87,908.77 1333.78,907.79 1332.69,909.47 1331.83,910.84 1333.55,911.87"/>
    </edge>
    <edge id=":10053209428_w0" function="walkingarea">
        <lane id=":10053209428_w0_0" index="0" allow="pedestrian" speed="1.00" length="3.31" width="2.00" shape="1332.53,909.36 1333.61,907.68 1333.79,906.42 1331.92,905.69 1330.21,910.10 1332.07,910.82 1332.29,909.28 1332.19,909.40 1332.16,909.67 1332.17,910.03 1332.16,910.44"/>
    </edge>
    <edge id=":10053209432_0" function="internal">
        <lane id=":10053209432_0_0" index="0" allow="delivery bicycle" speed="8.33" length="6.08" shape="1380.10,829.84 1374.79,826.88"/>
    </edge>
    <edge id=":10053209432_1" function="internal">
        <lane id=":10053209432_1_0" index="0" allow="delivery bicycle" speed="3.65" length="2.34" shape="1380.10,829.84 1379.44,828.56 1379.48,827.67"/>
    </edge>
    <edge id=":10053209432_4" function="internal">
        <lane id=":10053209432_4_0" index="0" allow="delivery bicycle" speed="3.65" length="2.34" shape="1379.48,827.67 1380.22,827.16 1381.66,827.05"/>
    </edge>
    <edge id=":10053209432_2" function="internal">
        <lane id=":10053209432_2_0" index="0" allow="delivery bicycle" speed="8.33" length="6.08" shape="1376.35,824.08 1381.66,827.05"/>
    </edge>
    <edge id=":10053209432_3" function="internal">
        <lane id=":10053209432_3_0" index="0" allow="delivery bicycle" speed="3.65" length="2.34" shape="1376.35,824.08 1377.01,825.37 1376.97,826.26"/>
    </edge>
    <edge id=":10053209432_5" function="internal">
        <lane id=":10053209432_5_0" index="0" allow="delivery bicycle" speed="3.65" length="2.34" shape="1376.97,826.26 1376.23,826.76 1374.79,826.88"/>
    </edge>
    <edge id=":10053209432_c0" function="crossing" crossingEdges="4840977#2 -4840977#2">
        <lane id=":10053209432_c0_0" index="0" allow="pedestrian" speed="1.00" length="6.40" width="4.00" shape="1380.70,824.68 1377.57,830.26"/>
    </edge>
    <edge id=":10053209432_w0" function="walkingarea">
        <lane id=":10053209432_w0_0" index="0" allow="pedestrian" speed="1.00" length="4.11" width="4.00" shape="1374.01,828.27 1373.03,830.02 1373.43,831.94 1375.01,833.16 1378.34,832.99 1379.32,831.24 1375.83,829.29"/>
    </edge>
    <edge id=":10053209432_w1" function="walkingarea">
        <lane id=":10053209432_w1_0" index="0" allow="pedestrian" speed="1.00" length="4.06" width="4.00" shape="1378.95,823.70 1382.44,825.65 1383.42,823.91 1383.46,822.23 1381.88,821.01 1378.11,820.94 1377.13,822.69"/>
    </edge>
    <edge id=":10053209434_w0" function="walkingarea">
        <lane id=":10053209434_w0_0" index="0" allow="pedestrian" speed="1.00" length="4.03" width="2.00" shape="1426.80,770.22 1428.05,768.66 1427.81,766.56 1426.26,765.30 1423.12,769.20 1424.68,770.45 1426.40,769.95 1426.03,769.80 1425.68,769.78 1425.34,769.88 1425.01,770.10"/>
    </edge>
    <edge id=":10053209435_w0" function="walkingarea">
        <lane id=":10053209435_w0_0" index="0" allow="pedestrian" speed="1.00" length="3.85" width="2.00" shape="1414.44,840.46 1412.86,839.23 1410.99,839.74 1409.83,841.37 1409.78,843.17 1411.35,844.40"/>
    </edge>
    <edge id=":10053209446_w0" function="walkingarea">
        <lane id=":10053209446_w0_0" index="0" allow="pedestrian" speed="1.00" length="4.03" width="2.00" shape="1387.03,820.13 1388.23,818.53 1387.94,816.45 1386.36,815.22 1383.30,819.18 1384.88,820.40 1386.61,819.87 1386.23,819.73 1385.88,819.70 1385.54,819.81 1385.21,820.04"/>
    </edge>
    <edge id=":10053209447_w0" function="walkingarea">
        <lane id=":10053209447_w0_0" index="0" allow="pedestrian" speed="1.00" length="4.03" width="2.00" shape="1395.65,806.57 1394.09,805.31 1391.99,805.53 1390.73,807.08 1391.00,809.24 1392.58,810.46"/>
    </edge>
    <edge id=":10053209448_w0" function="walkingarea">
        <lane id=":10053209448_w0_0" index="0" allow="pedestrian" speed="1.00" length="2.29" width="2.00" shape="1368.96,902.17 1369.87,900.40 1369.79,898.69 1368.19,897.48 1369.15,899.99 1368.26,901.79"/>
    </edge>
    <edge id=":10053209449_w0" function="walkingarea">
        <lane id=":10053209449_w0_0" index="0" allow="pedestrian" speed="1.00" length="3.69" width="2.00" shape="1374.54,893.57 1375.77,891.99 1376.09,890.33 1374.49,889.13 1371.48,893.12 1373.08,894.33 1374.24,893.40 1373.98,893.39 1373.75,893.51 1373.53,893.72 1373.31,894.01"/>
    </edge>
    <edge id=":10053209450_w0" function="walkingarea">
        <lane id=":10053209450_w0_0" index="0" allow="pedestrian" speed="1.00" length="4.03" width="2.00" shape="1393.94,869.09 1395.18,867.52 1394.91,865.39 1393.33,864.16 1390.26,868.16 1391.86,869.36 1393.55,868.83 1393.18,868.69 1392.83,868.67 1392.50,868.77 1392.18,869.00"/>
    </edge>
    <edge id=":10053209451_w0" function="walkingarea">
        <lane id=":10053209451_w0_0" index="0" allow="pedestrian" speed="1.00" length="3.95" width="2.00" shape="1441.48,808.10 1442.73,806.54 1442.60,804.52 1441.03,803.28 1437.93,807.22 1439.51,808.45 1441.11,807.86 1440.76,807.74 1440.43,807.75 1440.12,807.87 1439.81,808.11"/>
    </edge>
    <edge id=":10053209452_w0" function="walkingarea">
        <lane id=":10053209452_w0_0" index="0" allow="pedestrian" speed="1.00" length="3.06" width="2.00" shape="1373.77,901.03 1372.13,899.88 1370.05,900.49 1369.14,902.26 1370.20,902.67 1371.85,903.79"/>
    </edge>
    <edge id=":10053209453_w0" function="walkingarea">
        <lane id=":10053209453_w0_0" index="0" allow="pedestrian" speed="1.00" length="2.09" width="2.00" shape="1333.24,884.41 1334.13,882.61 1332.75,884.32 1334.23,885.65 1336.16,883.35 1334.57,882.13 1332.88,884.11 1332.88,883.79 1333.16,883.44 1333.61,883.05 1334.11,882.62"/>
    </edge>
    <edge id=":10053209456_w0" function="walkingarea">
        <lane id=":10053209456_w0_0" index="0" allow="pedestrian" speed="1.00" length="3.60" width="2.00" shape="1205.98,858.90 1206.91,857.13 1205.98,854.86 1204.11,854.14 1203.63,855.56 1202.78,857.37 1202.28,858.99 1204.16,859.67 1205.57,858.74 1205.20,858.69 1204.87,858.77 1204.59,858.96 1204.35,859.26"/>
    </edge>
    <edge id=":10053209457_w0" function="walkingarea">
        <lane id=":10053209457_w0_0" index="0" allow="pedestrian" speed="1.00" length="1.94" width="2.00" shape="1333.30,907.59 1331.44,906.85 1332.04,905.40 1333.90,906.12 1333.32,903.50 1332.41,905.28"/>
    </edge>
    <edge id=":10053209458_w0" function="walkingarea">
        <lane id=":10053209458_w0_0" index="0" allow="pedestrian" speed="1.00" length="4.04" width="2.00" shape="1203.72,824.25 1204.62,822.46 1204.01,820.47 1202.25,819.51 1199.84,823.89 1201.59,824.85 1203.26,824.05 1202.85,823.97 1202.49,824.00 1202.16,824.15 1201.86,824.44"/>
    </edge>
    <edge id=":10053209459_w0" function="walkingarea">
        <lane id=":10053209459_w0_0" index="0" allow="pedestrian" speed="1.00" length="2.97" width="2.00" shape="1211.93,843.61 1211.39,841.68 1210.02,842.23 1208.22,843.11 1207.76,844.77 1209.62,845.50 1211.30,843.79 1210.81,843.97 1210.44,844.18 1210.14,844.48 1209.88,844.90"/>
    </edge>
    <edge id=":10053209461_w0" function="walkingarea">
        <lane id=":10053209461_w0_0" index="0" allow="pedestrian" speed="1.00" length="4.03" width="2.00" shape="1234.28,854.51 1235.20,852.73 1230.75,850.44 1229.84,852.22 1230.48,854.25 1232.26,855.15 1233.84,854.32 1233.45,854.25 1233.10,854.29 1232.79,854.46 1232.51,854.74"/>
    </edge>
    <edge id=":10053209462_w0" function="walkingarea">
        <lane id=":10053209462_w0_0" index="0" allow="pedestrian" speed="1.00" length="3.66" width="2.00" shape="1325.48,901.74 1326.39,899.96 1323.73,898.58 1322.81,900.36 1323.86,903.92 1322.07,903.03"/>
    </edge>
    <edge id=":10053209463_w0" function="walkingarea">
        <lane id=":10053209463_w0_0" index="0" allow="pedestrian" speed="1.00" length="2.01" width="2.00" shape="1332.11,888.02 1330.62,886.68 1330.48,885.74 1332.29,886.60 1330.02,887.42 1329.10,889.20 1331.61,888.58 1331.17,889.02 1330.73,889.34 1330.28,889.49 1329.74,889.45"/>
    </edge>
    <edge id=":10053209464_w0" function="walkingarea">
        <lane id=":10053209464_w0_0" index="0" allow="pedestrian" speed="1.00" length="4.04" width="2.00" shape="1212.46,828.67 1213.38,826.90 1212.79,824.90 1211.05,823.91 1208.92,824.62 1208.03,826.41"/>
    </edge>
    <edge id=":10075520446_0" function="internal">
        <lane id=":10075520446_0_0" index="0" allow="pedestrian delivery bicycle" speed="5.56" length="5.00" shape="1103.83,462.60 1101.11,466.80"/>
    </edge>
    <edge id=":10075520446_1" function="internal">
        <lane id=":10075520446_1_0" index="0" allow="pedestrian delivery bicycle" speed="3.65" length="4.67" shape="1103.83,462.60 1102.50,463.18 1101.61,463.08 1101.16,462.31 1101.14,460.86"/>
    </edge>
    <edge id=":10075520446_2" function="internal">
        <lane id=":10075520446_2_0" index="0" allow="pedestrian delivery bicycle" speed="5.56" length="5.00" shape="1098.42,465.06 1101.14,460.86"/>
    </edge>
    <edge id=":10075520446_3" function="internal">
        <lane id=":10075520446_3_0" index="0" allow="pedestrian delivery bicycle" speed="3.65" length="4.67" shape="1098.42,465.06 1099.75,464.49 1100.63,464.59 1101.09,465.36 1101.11,466.80"/>
    </edge>
    <edge id=":10075520446_w0" function="walkingarea">
        <lane id=":10075520446_w0_0" index="0" allow="pedestrian" speed="1.00" length="4.99" width="3.20" shape="1105.17,463.47 1102.48,461.73 1102.48,461.73 1099.80,459.99 1097.64,460.44 1096.61,462.16 1097.08,464.19 1099.77,465.93 1099.77,465.93 1102.45,467.67"/>
    </edge>
    <edge id=":10178016317_w0" function="walkingarea">
        <lane id=":10178016317_w0_0" index="0" allow="pedestrian" speed="1.00" length="4.03" width="2.00" shape="1535.22,830.10 1536.44,828.51 1536.18,826.42 1534.60,825.19 1532.50,825.43 1531.26,827.00"/>
    </edge>
    <edge id=":10183133111_w0" function="walkingarea">
        <lane id=":10183133111_w0_0" index="0" allow="pedestrian" speed="1.00" length="4.63" width="2.00" shape="1638.94,682.50 1640.10,680.87 1640.34,679.64 1639.87,677.70 1635.55,677.56 1634.35,679.16"/>
    </edge>
    <edge id=":10188332726_w0" function="walkingarea">
        <lane id=":10188332726_w0_0" index="0" allow="pedestrian" speed="1.00" length="4.03" width="2.00" shape="1643.86,863.68 1645.07,862.09 1644.81,860.00 1643.24,858.76 1641.09,859.06 1639.88,860.66"/>
    </edge>
    <edge id=":10188353045_0" function="internal">
        <lane id=":10188353045_0_0" index="0" allow="pedestrian delivery bicycle" speed="3.65" length="4.67" shape="1501.02,621.98 1500.50,620.64 1500.64,619.75 1501.43,619.33 1502.87,619.37"/>
    </edge>
    <edge id=":10189040378_w0" function="walkingarea">
        <lane id=":10189040378_w0_0" index="0" allow="pedestrian" speed="1.00" length="0.29" width="2.00" shape="1135.67,447.97 1136.81,446.33 1136.58,446.17 1135.42,447.80"/>
    </edge>
    <edge id=":10189040386_0" function="internal">
        <lane id=":10189040386_0_0" index="0" disallow="pedestrian tram rail_urban rail rail_electric rail_fast ship" speed="13.89" length="8.21" shape="568.58,466.57 566.18,466.64 564.54,467.07 562.90,467.50 560.49,467.57"/>
        <lane id=":10189040386_0_1" index="1" disallow="pedestrian tram rail_urban rail rail_electric rail_fast ship" speed="13.89" length="8.21" shape="568.82,463.38 566.41,463.45 564.78,463.88 563.14,464.31 560.73,464.38"/>
        <lane id=":10189040386_0_2" index="2" disallow="pedestrian tram rail_urban rail rail_electric rail_fast ship" speed="13.89" length="8.21" shape="568.82,463.38 566.45,462.95 564.89,462.28 563.34,461.61 560.97,461.18"/>
    </edge>
    <edge id=":10189040386_w0" function="walkingarea">
        <lane id=":10189040386_w0_0" index="0" allow="pedestrian" speed="1.00" length="8.16" width="2.00" shape="560.37,469.16 560.22,471.16 568.31,470.16 568.46,468.17 566.73,468.15 565.46,468.36 564.42,468.66 563.37,468.97 562.10,469.17"/>
    </edge>
    <edge id=":10189040387_0" function="internal">
        <lane id=":10189040387_0_0" index="0" disallow="pedestrian tram rail_urban rail rail_electric rail_fast ship" speed="13.89" length="8.21" shape="258.70,441.67 256.29,441.73 254.65,442.14 253.00,442.56 250.59,442.62"/>
        <lane id=":10189040387_0_1" index="1" disallow="pedestrian tram rail_urban rail rail_electric rail_fast ship" speed="13.89" length="8.21" shape="258.96,438.49 256.55,438.54 254.91,438.96 253.26,439.37 250.85,439.43"/>
        <lane id=":10189040387_0_2" index="2" disallow="pedestrian tram rail_urban rail rail_electric rail_fast ship" speed="13.89" length="8.21" shape="258.96,438.49 256.59,438.04 255.04,437.36 253.48,436.68 251.11,436.24"/>
    </edge>
    <edge id=":10189040387_w0" function="walkingarea">
        <lane id=":10189040387_w0_0" index="0" allow="pedestrian" speed="1.00" length="8.16" width="2.00" shape="250.46,444.21 250.30,446.21 258.40,445.26 258.57,443.27 256.84,443.25 255.56,443.44 254.52,443.74 253.47,444.04 252.19,444.23"/>
    </edge>
    <edge id=":10196188887_w0" function="walkingarea">
        <lane id=":10196188887_w0_0" index="0" allow="pedestrian" speed="1.00" length="4.37" width="2.00" shape="1629.17,758.22 1630.37,756.62 1630.54,755.10 1629.70,753.28 1626.15,753.46 1624.95,755.06"/>
    </edge>
    <edge id=":10196188912_w0" function="walkingarea">
        <lane id=":10196188912_w0_0" index="0" allow="pedestrian" speed="1.00" length="4.03" width="2.00" shape="1652.04,850.62 1650.46,849.41 1648.36,849.67 1647.13,851.24 1647.41,853.37 1648.99,854.59"/>
    </edge>
    <edge id=":10196188914_w0" function="walkingarea">
        <lane id=":10196188914_w0_0" index="0" allow="pedestrian" speed="1.00" length="4.06" width="2.00" shape="1612.46,819.81 1614.46,819.77 1615.93,818.35 1616.04,816.36 1611.09,816.02 1610.93,818.01 1612.42,819.27 1612.31,818.84 1612.13,818.50 1611.84,818.26 1611.45,818.10"/>
    </edge>
    <edge id=":10196206490_0" function="internal">
        <lane id=":10196206490_0_0" index="0" allow="pedestrian bicycle" speed="2.78" length="2.92" width="2.00" shape="704.03,961.49 704.30,962.35 704.17,962.90 703.66,963.13 702.77,963.04"/>
    </edge>
    <edge id=":10196206498_0" function="internal">
        <lane id=":10196206498_0_0" index="0" allow="pedestrian delivery bicycle" speed="5.56" length="4.35" shape="594.99,881.29 590.66,880.90"/>
    </edge>
    <edge id=":10196206498_1" function="internal">
        <lane id=":10196206498_1_0" index="0" allow="pedestrian delivery bicycle" speed="3.65" length="2.34" shape="594.99,881.29 593.87,880.38 593.54,879.55"/>
    </edge>
    <edge id=":10196206498_4" function="internal">
        <lane id=":10196206498_4_0" index="0" allow="pedestrian delivery bicycle" speed="3.65" length="2.34" shape="593.54,879.55 594.01,878.79 595.28,878.10"/>
    </edge>
    <edge id=":10196206498_2" function="internal">
        <lane id=":10196206498_2_0" index="0" allow="pedestrian delivery bicycle" speed="5.56" length="4.34" shape="590.95,877.71 595.28,878.10"/>
    </edge>
    <edge id=":10196206498_3" function="internal">
        <lane id=":10196206498_3_0" index="0" allow="pedestrian delivery bicycle" speed="3.65" length="2.34" shape="590.95,877.71 592.07,878.62 592.40,879.45"/>
    </edge>
    <edge id=":10196206498_5" function="internal">
        <lane id=":10196206498_5_0" index="0" allow="pedestrian delivery bicycle" speed="3.65" length="2.34" shape="592.40,879.45 591.93,880.21 590.66,880.90"/>
    </edge>
    <edge id=":10196206498_w0" function="walkingarea">
        <lane id=":10196206498_w0_0" index="0" allow="pedestrian" speed="1.00" length="5.15" width="3.20" shape="594.85,882.88 595.13,879.69 595.13,879.69 595.42,876.51 594.03,874.87 592.03,874.70 591.09,876.12 590.81,879.31 590.81,879.31 590.52,882.49 591.24,884.07 593.23,884.24 594.37,882.88 593.98,882.96 593.68,883.13 593.45,883.40 593.31,883.77"/>
    </edge>
    <edge id=":10196206499_0" function="internal">
        <lane id=":10196206499_0_0" index="0" allow="delivery bicycle" speed="8.33" length="4.34" shape="597.72,849.73 593.40,849.30"/>
    </edge>
    <edge id=":10196206499_1" function="internal">
        <lane id=":10196206499_1_0" index="0" allow="delivery bicycle" speed="3.65" length="2.34" shape="597.72,849.73 596.61,848.82 596.29,847.98"/>
    </edge>
    <edge id=":10196206499_4" function="internal">
        <lane id=":10196206499_4_0" index="0" allow="delivery bicycle" speed="3.65" length="2.34" shape="596.29,847.98 596.76,847.23 598.04,846.55"/>
    </edge>
    <edge id=":10196206499_2" function="internal">
        <lane id=":10196206499_2_0" index="0" allow="delivery bicycle" speed="8.33" length="4.34" shape="593.72,846.12 598.04,846.55"/>
    </edge>
    <edge id=":10196206499_3" function="internal">