<?xml version="1.0" encoding="UTF-8"?>

<!-- generated on 03/13/23 12:15:12 by Eclipse SUMO polyconvert Version 1.8.0
<configuration xmlns:xsi="http://www.w3.org/2001/XMLSchema-instance" xsi:noNamespaceSchemaLocation="http://sumo.dlr.de/xsd/polyconvertConfiguration.xsd">

    <input>
        <net-file value="osm.net.xml"/>
        <osm-files value="osm_bbox.osm.xml"/>
        <osm.keep-full-type value="true"/>
        <type-file value="C:\Program%20Files%20(x86)\Eclipse\Sumo\data\typemap\osmPolyconvert.typ.xml"/>
    </input>

    <output>
        <output-file value="osm.poly.xml"/>
    </output>

    <processing>
        <poi-layer-offset value="5"/>
    </processing>

    <report>
        <verbose value="true"/>
    </report>

</configuration>
-->

<additional xmlns:xsi="http://www.w3.org/2001/XMLSchema-instance" xsi:noNamespaceSchemaLocation="http://sumo.dlr.de/xsd/additional_file.xsd">
    <location netOffset="-390301.53,-5819330.29" convBoundary="-739.07,-427.26,3675.79,2792.06" origBoundary="13.372213,52.509571,13.436728,52.538857" projParameter="+proj=utm +zone=33 +ellps=WGS84 +datum=WGS84 +units=m +no_defs"/>

    <poly id="100950876" type="building.commercial" color="255,230,230" fill="1" layer="-1.00" shape="1385.128570,940.407354 1372.225787,964.361146 1372.127971,1007.193436 1372.196465,1012.744593 1373.565520,1016.642351 1375.521247,1020.059774 1378.158481,1023.295208 1383.153956,1027.279670 1386.331180,1028.845153 1406.143318,1036.496757 1437.968451,968.893995 1385.128570,940.407354"/>
    <poly id="100950878" type="building.commercial" color="255,230,230" fill="1" layer="-1.00" shape="1355.763269,1016.702346 1361.084207,1002.875426 1362.502733,970.963473 1362.423155,967.059446 1360.880572,962.375470 1358.393956,958.279886 1354.441305,954.494927 1350.491743,952.690616 1329.001688,941.315225 1309.747291,975.446848 1307.974102,981.506128 1308.108157,987.256132 1309.799703,993.761723 1316.654200,1001.388211 1355.763269,1016.702346"/>
    <poly id="1014046275" type="building.yes" color="255,230,230" fill="1" layer="-1.00" shape="1042.589253,319.151450 1046.492802,320.689491 1054.245366,323.755665 1057.971014,325.230895 1060.639329,318.517402 1057.728756,317.369047 1065.894487,296.824414 1055.601155,292.757452 1047.428427,313.291131 1045.257551,312.437948 1042.589253,319.151450"/>
    <poly id="1025206459" type="amenity.fountain" color="237,199,199" fill="1" layer="-1.00" shape="557.271920,511.956220 560.042411,513.519123 564.779649,513.780779 567.662111,512.448001 569.066095,509.957508 569.278793,506.403047 567.251452,503.766454 563.201247,502.654912 558.853028,503.096758 556.475493,505.764736 555.983725,508.980459 557.271920,511.956220"/>
    <poly id="1027050440" type="leisure.park" color="207,245,201" fill="1" layer="-2.00" shape="699.423094,706.796007 666.534288,703.088147 660.840906,768.411802 686.116664,770.441870 690.256103,733.183388 697.418823,733.858541 699.423094,706.796007"/>
    <poly id="1041458576" type="leisure.garden" color="207,245,201" fill="1" layer="-2.00" shape="1167.546925,457.423507 1169.046329,455.242655 1194.839188,472.898219 1183.435374,489.463927 1126.885986,450.724496 1135.014577,438.915971 1160.173820,456.151427 1161.943025,453.586256 1167.546925,457.423507"/>
    <poly id="1043377446" type="natural.scrub" color="140,196,107" fill="1" layer="-4.00" shape="1299.580046,912.300189 1296.606404,918.096726 1315.354260,927.930294 1318.470773,921.841290 1299.580046,912.300189"/>
    <poly id="1043377447" type="natural.scrub" color="140,196,107" fill="1" layer="-4.00" shape="1288.594745,924.127192 1278.047383,945.002397 1301.027266,955.910615 1313.838259,930.890405 1295.071042,921.101782 1292.442206,926.223033 1288.594745,924.127192"/>
    <poly id="1043377453" type="landuse.grass" color="194,194,130" fill="1" layer="-3.00" shape="1434.911596,872.374073 1441.272959,869.362530 1450.694522,865.382019 1457.428111,863.241350 1462.957576,862.206679 1474.237198,861.523426 1466.783234,855.946318 1469.881788,852.105588 1462.802816,846.297647 1461.954324,845.682127 1460.399516,845.048835 1458.726865,844.918889 1457.273872,845.206937 1455.944572,845.870590 1455.164809,846.522097 1454.510116,847.304371 1435.856227,869.048296 1435.151645,870.643990 1434.911596,872.374073"/>
    <poly id="1043377454" type="landuse.grass" color="194,194,130" fill="1" layer="-3.00" shape="1436.384858,876.380820 1461.132353,903.697289 1463.798984,900.277821 1471.493407,890.938639 1474.952595,885.910418 1478.178615,881.388093 1481.020006,874.203649 1482.734993,869.492166 1480.501273,867.316007 1479.252165,866.386637 1477.457357,865.335794 1475.947934,864.912919 1474.116055,864.641828 1469.299148,864.748277 1466.257240,865.316245 1456.194047,866.985241 1439.134084,873.627168 1436.384858,876.380820"/>
    <poly id="1043377455" type="landuse.grass" color="194,194,130" fill="1" layer="-3.00" shape="1464.927099,904.025141 1465.726912,903.974082 1500.877367,870.671426 1498.696306,868.727776 1495.438377,869.656580 1489.530518,870.154324 1483.771741,877.091654 1481.959128,879.535266 1476.423956,888.604162 1470.214946,896.052201 1464.953450,903.067586 1464.927099,904.025141"/>
    <poly id="104786904" type="landuse.grass" color="194,194,130" fill="1" layer="-3.00" shape="707.087685,636.988627 712.424925,575.144817 693.028166,573.484475 687.684382,635.328461 707.087685,636.988627"/>
    <poly id="104786906" type="building.yes" color="255,230,230" fill="1" layer="-1.00" shape="721.279372,741.528627 784.603615,753.117066 777.598968,763.209829 773.911052,767.998842 769.437803,773.795686 767.531254,776.275045 753.432716,775.353480 742.053173,774.605145 742.653936,767.436704 764.161131,769.105910 765.491583,762.088158 725.632808,755.363571 724.115980,756.443321 722.266913,765.776049 723.297751,766.954897 723.096135,767.960871 722.249699,768.358046 722.028480,773.058835 718.541341,772.835984 715.237384,772.609059 715.638632,770.508132 719.497303,751.126929 721.106148,741.065121 721.279372,741.528627"/>
    <poly id="104786907" type="building.residential" color="255,230,230" fill="1" layer="-1.00" shape="750.052308,723.173265 748.777129,736.031805 709.087191,728.669313 712.185836,696.485971 725.813896,697.607064 727.009904,683.937961 740.317631,684.999457 739.180341,697.343059 731.362541,696.515504 730.077831,710.164324 737.973314,710.823234 737.512179,716.030103 737.047519,721.993730 750.052308,723.173265"/>
    <poly id="104786910" type="building.yes" color="255,230,230" fill="1" layer="-1.00" shape="827.765663,749.965249 840.437105,733.403851 824.341510,720.820193 825.047433,719.903161 824.266929,719.297364 827.341272,715.300966 828.052447,715.841539 828.995942,714.618781 832.952986,717.657686 833.711705,716.672717 850.493162,729.574991 857.752771,720.255608 867.806549,723.348224 847.636364,749.467930 840.148261,759.193004 827.765663,749.965249"/>
    <poly id="104786915" type="building.yes" color="255,230,230" fill="1" layer="-1.00" shape="825.278238,743.110281 811.750559,740.695880 810.633646,746.941062 824.136148,749.445041 825.278238,743.110281"/>
    <poly id="104786916" type="amenity.restaurant" color="237,199,199" fill="1" layer="-1.00" shape="853.571704,675.370630 848.731520,692.458970 886.812191,703.463701 891.613125,689.492011 888.947959,688.382820 886.393661,686.458851 883.691447,684.293361 879.991664,682.750930 865.680964,678.706882 853.571704,675.370630"/>
    <poly id="104786916#1" type="building.yes" color="255,230,230" fill="1" layer="-1.00" shape="853.571704,675.370630 848.731520,692.458970 886.812191,703.463701 891.613125,689.492011 888.947959,688.382820 886.393661,686.458851 883.691447,684.293361 879.991664,682.750930 865.680964,678.706882 853.571704,675.370630"/>
    <poly id="1048127662" type="landuse.religious" color="194,194,130" fill="1" layer="-3.00" shape="1200.084756,586.506126 1150.218235,668.842600 1166.016778,677.550350 1212.559933,703.203165 1216.282980,698.447103 1220.536584,701.401851 1245.933822,665.698418 1258.017094,640.282485 1266.101866,619.751105 1200.084756,586.506126"/>
    <poly id="1051150923" type="landuse.grass" color="194,194,130" fill="1" layer="-3.00" shape="1586.094175,560.911674 1588.211991,559.985848 1586.742434,555.222302 1584.121021,550.862520 1579.822124,546.773447 1568.452353,539.101613 1551.236912,527.386034 1521.628093,507.765453 1511.513226,501.290062 1510.011311,501.211962 1508.407074,501.725883 1507.243949,502.541634 1499.888335,512.807962 1501.392818,515.768045 1508.213844,520.635908 1513.944954,525.639129 1518.144059,530.431388 1522.690691,536.206329 1526.624772,541.293764 1526.984554,541.908963 1527.855773,541.400108 1531.057669,546.837545 1530.193235,547.346249 1531.633248,549.539962 1535.206210,553.645025 1538.999256,556.343156 1542.598547,558.567081 1547.456768,560.318108 1551.783870,561.379829 1554.406238,561.477712 1560.778970,561.726471 1569.729186,561.884952 1576.922786,561.804038 1581.658170,561.988821 1584.762325,561.464069 1586.094175,560.911674"/>
    <poly id="1051150924" type="landuse.grass" color="194,194,130" fill="1" layer="-3.00" shape="1488.719078,528.355136 1494.425914,533.180830 1497.475957,536.351575 1500.797918,540.462159 1510.030303,543.251535 1518.144072,545.798573 1522.795611,548.333071 1526.493309,549.787010 1527.585663,549.762884 1528.168082,549.393939 1528.111008,548.961224 1525.731521,545.107996 1521.757892,538.229895 1516.893602,532.517609 1511.132531,526.157482 1507.191957,522.928507 1501.080734,518.234135 1499.472534,517.646517 1497.737481,517.462294 1496.420728,517.469128 1488.719078,528.355136"/>
    <poly id="1051150925" type="landuse.grass" color="194,194,130" fill="1" layer="-3.00" shape="1493.676183,514.914779 1485.435433,525.979615 1480.152915,522.847076 1472.432171,519.657142 1465.852545,517.421230 1459.880156,515.939711 1452.412242,514.669292 1446.286889,514.559863 1437.748142,515.516395 1431.369148,517.137367 1423.913385,519.794760 1422.756371,519.964996 1422.156992,519.566526 1421.735394,518.919319 1423.748500,511.107761 1425.856251,501.435806 1426.802971,496.051382 1427.743203,490.066212 1428.608652,482.847534 1429.563241,474.747806 1430.830234,466.040284 1432.111947,466.290142 1434.031542,466.837473 1436.514728,468.006620 1439.438343,470.367812 1448.260254,477.305610 1461.044758,487.238195 1474.750917,497.717954 1489.616629,509.373909 1491.896519,511.482291 1493.676183,514.914779"/>
    <poly id="1051150926" type="landuse.grass" color="194,194,130" fill="1" layer="-3.00" shape="1432.653012,460.057863 1432.112967,458.044580 1432.108687,456.008327 1432.455602,454.197990 1433.191963,452.501448 1433.997945,451.804850 1435.170659,451.422846 1436.148184,451.423495 1439.201361,453.503633 1463.440011,469.069561 1502.438726,495.203430 1503.827586,497.231352 1503.880786,500.868895 1502.059698,503.857932 1497.411895,509.791457 1495.946268,509.512263 1493.182426,508.850028 1492.076302,508.251321 1483.202837,501.125417 1483.942101,500.174367 1479.010458,496.333038 1478.271193,497.284089 1464.979016,487.106745 1465.586023,486.314401 1460.380005,482.345622 1459.772999,483.137967 1446.418058,473.195737 1447.255653,472.086722 1442.070943,468.162001 1441.233103,469.259895 1434.614108,463.096856 1433.182632,461.292445 1432.653012,460.057863"/>
    <poly id="1051150927" type="landuse.grass" color="194,194,130" fill="1" layer="-3.00" shape="1419.762928,631.429445 1433.351239,609.875362 1435.837305,611.177974 1438.450214,612.077189 1442.425868,612.901775 1446.354666,613.449209 1449.819792,613.595174 1453.863390,613.194233 1457.984866,612.324215 1462.140072,610.830311 1466.102998,608.928938 1471.980362,615.330953 1478.929527,625.080949 1480.898536,629.711027 1476.752873,632.250698 1473.144636,633.921673 1468.646965,635.890495 1464.343647,637.131733 1459.999034,638.040061 1454.617742,638.726496 1448.313635,639.121762 1438.779130,638.319895 1431.844580,636.603748 1426.294495,634.567687 1419.762928,631.429445"/>
    <poly id="1051150928" type="landuse.grass" color="194,194,130" fill="1" layer="-3.00" shape="1390.881475,570.721641 1393.999348,567.748394 1397.011807,563.998549 1398.869046,561.420392 1400.736472,559.609813 1402.591225,559.068061 1404.696828,559.433225 1405.893367,560.130062 1417.449007,567.908694 1415.804211,571.806330 1415.162581,575.637278 1415.131492,580.678763 1415.575080,584.163018 1416.344683,587.962766 1417.713756,592.472553 1419.005974,595.348285 1421.090583,599.063324 1423.252473,601.975468 1425.582404,604.505561 1428.831468,607.159995 1415.516523,628.797067 1413.664042,627.291289 1410.879640,625.082823 1406.797476,621.589997 1403.300413,617.850558 1399.970546,613.384130 1396.675132,608.327180 1394.186747,602.929687 1392.004451,596.946791 1390.503229,590.759666 1389.567192,583.425029 1389.572286,577.516166 1390.036142,571.786328 1390.881475,570.721641"/>
    <poly id="1051150930" type="landuse.grass" color="194,194,130" fill="1" layer="-3.00" shape="1333.341094,588.930597 1326.164813,604.211781 1327.154764,610.910944 1327.951356,611.939312 1328.869861,612.341837 1331.332717,612.287344 1333.355868,613.221808 1363.891627,590.346737 1367.914939,587.186531 1375.731121,579.346747 1375.513064,578.695041 1374.943327,577.795180 1373.571058,576.212030 1372.598907,575.532493 1371.176111,575.040964 1369.573078,574.686954 1364.250367,574.648898 1360.942800,575.489863 1358.418682,576.458159 1354.353958,578.973888 1350.430413,582.654895 1347.234499,585.474111 1344.120287,587.690631 1340.537720,589.294371 1337.359113,589.520481 1334.530255,589.293752 1333.341094,588.930597"/>
    <poly id="1051150931" type="natural.scrub" color="140,196,107" fill="1" layer="-4.00" shape="1339.502865,576.576171 1343.181106,569.784857 1344.184234,570.330172 1346.976908,565.238718 1345.973534,564.682281 1347.141509,562.553327 1348.131068,563.098943 1350.852070,558.142609 1349.862511,557.596992 1350.867266,555.760968 1352.172863,556.477635 1354.985171,551.352369 1353.679572,550.635702 1354.703947,548.765861 1355.562874,549.236475 1358.414668,544.054701 1357.555741,543.584087 1358.463792,541.672310 1360.746381,540.831761 1363.827947,542.354845 1366.390524,544.045196 1368.677771,545.563597 1372.695722,549.525173 1371.861744,550.489463 1370.905561,552.680491 1369.493955,554.536637 1368.070154,556.148247 1366.956279,557.040836 1366.144420,557.470514 1364.143887,557.559273 1358.384147,558.632521 1356.953358,559.621143 1354.137884,566.137426 1351.435978,569.502091 1349.421903,573.274389 1348.311973,574.344937 1346.294956,575.836145 1344.850500,576.513501 1343.308492,576.770167 1339.502865,576.576171"/>
    <poly id="1051150932" type="man_made.embankment" color="255,230,230" fill="0" layer="-1.00" shape="1336.757207,581.644334 1339.502865,576.576171 1343.181106,569.784857 1344.184234,570.330172 1346.976908,565.238718 1345.973534,564.682281 1347.141509,562.553327 1348.131068,563.098943 1350.852070,558.142609 1349.862511,557.596992 1350.867266,555.760968 1352.172863,556.477635 1354.985171,551.352369 1353.679572,550.635702 1354.703947,548.765861 1355.562874,549.236475 1358.414668,544.054701 1357.555741,543.584087 1358.463792,541.672310 1360.746381,540.831761 1363.827947,542.354845 1366.390524,544.045196"/>
    <poly id="1051150934" type="landuse.grass" color="194,194,130" fill="1" layer="-3.00" shape="1372.695722,549.525173 1373.820198,550.646444 1375.504678,552.534262 1379.313785,558.102835 1381.406270,562.785784 1383.935085,570.930893 1379.132259,575.677314 1377.236743,575.296387 1375.305725,574.537908 1373.486357,573.610047 1370.997366,573.097589 1367.117495,572.615897 1364.548522,572.783995 1361.282051,573.334734 1357.803985,574.446534 1354.098256,576.620495 1349.098354,581.048606 1347.454360,582.832007 1345.629148,584.708439 1343.947437,586.014189 1342.016063,587.080656 1339.916934,587.928283 1337.146396,588.189876 1335.476501,587.881867 1333.895194,587.282581 1334.148621,586.464659 1336.757207,581.644334 1339.502865,576.576171 1343.308492,576.770167 1344.850500,576.513501 1346.294956,575.836145 1348.311973,574.344937 1349.421903,573.274389 1351.435978,569.502091 1354.137884,566.137426 1356.953358,559.621143 1358.384147,558.632521 1364.143887,557.559273 1366.144420,557.470514 1366.956279,557.040836 1368.070154,556.148247 1369.493955,554.536637 1370.905561,552.680491 1371.861744,550.489463 1372.695722,549.525173"/>
    <poly id="1051150936" type="landuse.flowerbed" color="194,194,130" fill="1" layer="-3.00" shape="1370.666827,543.728061 1367.356238,541.364342 1364.737866,540.220476 1364.159345,537.696182 1365.500542,535.418743 1367.703566,536.505030 1371.166782,536.561963 1373.061410,535.674363 1374.306067,534.556331 1375.038275,533.594292 1375.829477,532.230355 1376.192536,530.230487 1376.005738,528.843670 1375.579399,527.061557 1374.675763,525.490297 1373.165672,524.121619 1372.089381,523.644681 1373.784280,521.092360 1375.913391,520.678061 1378.050046,521.832587 1380.427122,523.115327 1383.627724,524.802705 1383.293707,525.967361 1382.530728,527.686755 1381.569430,530.567805 1380.902916,532.351831 1380.023079,534.619062 1378.975734,536.678574 1377.831824,538.361883 1375.981657,540.339002 1373.186045,542.537329 1370.666827,543.728061"/>
    <poly id="1051150937" type="man_made.embankment" color="255,230,230" fill="0" layer="-1.00" shape="1367.356238,541.364342 1364.737866,540.220476 1364.159345,537.696182 1365.500542,535.418743 1367.703566,536.505030 1371.166782,536.561963 1373.061410,535.674363 1374.306067,534.556331 1375.038275,533.594292 1375.829477,532.230355 1376.192536,530.230487 1376.005738,528.843670 1375.579399,527.061557 1374.675763,525.490297 1373.165672,524.121619 1372.089381,523.644681 1373.784280,521.092360 1375.913391,520.678061 1378.050046,521.832587"/>
    <poly id="1051150938" type="landuse.grass" color="194,194,130" fill="1" layer="-3.00" shape="1383.627724,524.802705 1387.182900,525.948119 1391.788351,527.315119 1395.761623,528.028446 1401.752741,528.207545 1404.957545,527.936388 1409.134203,527.410066 1410.903572,527.304181 1412.234787,528.565550 1409.524525,534.011223 1403.501792,544.682212 1398.555296,553.370955 1395.659314,558.397896 1390.807410,564.302660 1387.809161,567.774005 1386.888439,567.271369 1385.084321,567.033076 1383.710969,561.410632 1381.552750,556.517712 1378.392240,551.424407 1375.029573,547.626375 1370.666827,543.728061 1373.186045,542.537329 1375.981657,540.339002 1377.831824,538.361883 1378.975734,536.678574 1380.023079,534.619062 1380.902916,532.351831 1381.569430,530.567805 1382.530728,527.686755 1383.293707,525.967361 1383.627724,524.802705"/>
    <poly id="1051150939" type="man_made.embankment" color="255,230,230" fill="0" layer="-1.00" shape="1379.185393,519.147984 1374.964391,516.748756 1374.307858,514.993989 1375.214795,513.338175 1376.032524,513.787449 1378.916319,508.515960 1378.098835,508.077808 1378.979864,506.478206 1379.749363,506.895164 1382.692262,501.533349 1381.922517,501.105269 1382.920758,499.280523 1383.683227,499.686510 1386.495602,494.561264 1385.732887,494.144155 1386.646617,492.488193 1387.429933,492.915975 1390.424915,487.452866 1389.641599,487.025084 1390.503020,485.459300 1391.286336,485.887082 1394.515993,479.984811 1393.732676,479.557028 1400.082539,470.169598 1406.740355,460.586199 1419.016350,443.211701"/>
    <poly id="1051150940" type="landuse.grass" color="194,194,130" fill="1" layer="-3.00" shape="1424.303017,443.762488 1428.027375,446.417545 1428.456501,447.097969 1426.608224,460.525309 1422.445815,488.414030 1420.304212,503.617145 1414.782510,522.522582 1409.289496,524.302036 1404.708695,524.970824 1400.522936,525.085630 1395.692269,524.891999 1391.743039,524.345055 1385.577357,522.411669 1382.086235,520.786352 1379.185393,519.147984 1374.964391,516.748756 1374.307858,514.993989 1375.214795,513.338175 1376.032524,513.787449 1378.916319,508.515960 1378.098835,508.077808 1378.979864,506.478206 1379.749363,506.895164 1382.692262,501.533349 1381.922517,501.105269 1382.920758,499.280523 1383.683227,499.686510 1386.495602,494.561264 1385.732887,494.144155 1386.646617,492.488193 1387.429933,492.915975 1390.424915,487.452866 1389.641599,487.025084 1390.503020,485.459300 1391.286336,485.887082 1394.515993,479.984811 1393.732676,479.557028 1400.082539,470.169598 1406.740355,460.586199 1419.016350,443.211701 1422.798581,445.720817 1424.303017,443.762488"/>
    <poly id="1051153671" type="landuse.grass" color="194,194,130" fill="1" layer="-3.00" shape="1556.989624,593.935449 1552.021264,587.502136 1547.215203,580.119401 1543.714630,574.065406 1539.869468,567.162199 1536.773327,562.824051 1530.660150,556.193489 1524.872298,551.692244 1517.660490,548.491001 1512.139509,545.931202 1506.180154,544.115513 1503.578280,543.716758 1505.847016,547.472273 1509.033927,553.766851 1510.493733,558.085489 1511.925111,562.961134 1513.801329,571.688223 1514.275159,576.852082 1514.411824,584.883175 1512.993799,592.904100 1511.767721,597.015004 1517.159513,598.030921 1526.183901,598.476999 1537.001391,598.048926 1544.399187,597.073246 1551.777830,595.230050 1556.989624,593.935449"/>
    <poly id="1051153672" type="natural.scrub" color="140,196,107" fill="1" layer="-4.00" shape="1556.608260,571.744355 1556.607054,575.071526 1557.037253,577.031609 1558.880494,579.349957 1560.730890,580.455242 1563.105004,580.992587 1566.168436,580.468721 1568.629871,578.812008 1570.030093,576.744749 1570.648568,573.704394 1570.413349,572.274130 1570.344713,570.395085 1571.325095,571.141244 1573.247227,573.958597 1573.637668,575.040480 1573.876839,577.572287 1573.466455,579.584310 1572.329857,581.601238 1570.454858,583.378534 1566.855393,585.449836 1563.544767,585.845628 1562.452420,585.869745 1560.116807,585.231403 1556.114386,583.194407 1554.904950,582.219630 1553.597152,580.479222 1552.997487,578.222437 1553.482957,575.307420 1554.316381,574.009347 1556.608260,571.744355"/>
    <poly id="1051153673" type="landuse.grass" color="194,194,130" fill="1" layer="-3.00" shape="1570.344713,570.395085 1570.246302,567.782278 1570.198447,566.537046 1570.944412,565.274289 1572.647615,564.324227 1573.604270,564.303108 1583.780340,565.257992 1587.354317,566.336369 1587.554558,568.334912 1586.808589,569.597667 1581.917818,575.903684 1576.092391,581.996661 1570.197140,587.078578 1563.680779,591.083713 1559.362631,593.193144 1550.523681,581.470675 1547.083470,576.305551 1545.122641,572.966066 1540.642287,564.964127 1540.220554,562.158163 1540.575604,560.714866 1542.500306,561.495804 1546.469870,562.966008 1549.584365,563.831952 1552.553585,564.267130 1554.261970,564.474215 1555.744276,565.509733 1556.606709,566.447663 1556.608260,571.744355 1554.316381,574.009347 1553.482957,575.307420 1552.997487,578.222437 1553.597152,580.479222 1554.904950,582.219630 1556.114386,583.194407 1560.116807,585.231403 1562.452420,585.869745 1563.544767,585.845628 1566.855393,585.449836 1570.454858,583.378534 1572.329857,581.601238 1573.466455,579.584310 1573.876839,577.572287 1573.637668,575.040480 1573.247227,573.958597 1571.325095,571.141244 1570.344713,570.395085"/>
    <poly id="1051153674" type="landuse.grass" color="194,194,130" fill="1" layer="-3.00" shape="1451.836601,666.762714 1455.461720,664.935563 1462.466034,666.739220 1462.177291,667.802722 1468.445906,669.489116 1468.734405,668.414492 1474.284091,670.127908 1479.615970,672.736349 1485.647741,675.685415 1488.020633,677.090700 1487.640970,679.569412 1486.316909,683.237387 1483.748691,689.581217 1481.434907,695.151623 1478.758305,699.661799 1477.091393,702.558422 1475.314849,705.101385 1471.848446,709.195042 1469.034612,708.723099 1467.690381,707.484260 1465.638063,699.083777 1462.957379,688.972405 1461.654791,683.782354 1459.947137,679.613866 1458.030335,676.117656 1456.020021,672.690279 1453.689842,669.225461 1451.836601,666.762714"/>
    <poly id="1051153675" type="landuse.grass" color="194,194,130" fill="1" layer="-3.00" shape="1436.744227,642.993951 1443.937861,644.147999 1450.516643,644.202888 1456.515678,643.825495 1462.462945,642.948512 1467.034056,641.846012 1472.541901,639.821484 1472.971593,640.835726 1478.634656,638.462820 1478.198180,637.448726 1484.590267,633.969215 1485.713544,638.417685 1487.133025,643.983496 1488.015340,648.893521 1488.839390,654.238810 1489.203801,659.672146 1489.085370,665.372086 1488.317214,673.923914 1478.295343,669.494021 1470.404566,666.586044 1462.058322,663.955207 1453.155825,661.648250 1450.121214,660.402265 1446.773229,658.183981 1444.673424,656.850572 1442.232366,654.512097 1440.283538,651.717638 1438.349654,648.678044 1437.000871,645.391837 1436.744227,642.993951"/>
    <poly id="1051153676" type="landuse.grass" color="194,194,130" fill="1" layer="-3.00" shape="1416.950650,635.942655 1411.173303,644.505100 1411.170163,645.284101 1411.776225,646.906456 1412.688234,648.243858 1413.779885,649.109929 1421.355781,652.202820 1425.974382,654.170446 1433.169777,656.325921 1441.558726,659.044787 1441.156215,657.417928 1440.467127,656.031084 1439.438558,654.640616 1437.845189,652.572723 1436.277774,649.836601 1434.370236,645.839453 1431.686043,641.714815 1424.215797,639.409631 1421.271479,637.950243 1418.021748,636.186037 1416.950650,635.942655"/>
    <poly id="1051153677" type="landuse.grass" color="194,194,130" fill="1" layer="-3.00" shape="1400.578496,665.436679 1400.145289,663.343144 1400.071235,662.143001 1406.684314,651.470076 1408.262973,650.723005 1409.711942,650.557437 1411.493953,650.718333 1415.840682,652.669705 1415.296589,653.850132 1420.816769,656.376454 1421.354324,655.207301 1430.502772,658.198674 1430.145942,659.252556 1436.041033,661.236483 1436.397863,660.182602 1440.163599,661.646097 1443.501997,663.430613 1446.385330,665.202934 1448.151061,666.777407 1450.917380,669.398013 1454.139642,673.299344 1455.941011,676.486532 1457.467305,679.512885 1458.641483,683.192421 1459.732966,687.430165 1460.996666,693.010540 1461.905206,697.263454 1463.496920,704.171891 1463.990468,707.154304 1463.939383,708.835699 1462.885948,711.540728 1460.935229,712.652087 1457.197219,710.598203 1453.618299,707.450301 1400.578496,665.436679"/>
    <poly id="1051153678" type="landuse.grass" color="194,194,130" fill="1" layer="-3.00" shape="1393.190141,660.080772 1394.523377,660.207076 1395.852823,659.854978 1396.843426,659.221055 1397.614113,658.158019 1403.242937,649.020206 1400.489253,645.130801 1397.070927,642.802829 1396.431505,643.662665 1391.090878,639.741449 1391.730301,638.881612 1377.604195,629.969242 1377.086653,630.815257 1371.713018,627.551320 1372.230560,626.705304 1356.770670,619.180057 1356.335039,620.046519 1350.261180,617.042900 1350.690026,616.176589 1344.673070,614.518157 1340.046521,614.342324 1337.058675,616.133206 1336.495930,620.151590 1349.570057,628.452845 1393.190141,660.080772"/>
    <poly id="1051153679" type="landuse.grass" color="194,194,130" fill="1" layer="-3.00" shape="1345.966537,609.470997 1347.999350,611.762820 1350.280913,613.025403 1361.175259,617.914229 1374.604200,625.072687 1388.483411,633.256088 1399.746783,641.330455 1403.322530,643.410141 1404.620372,643.470465 1406.711038,643.468748 1413.269836,633.409051 1409.045649,630.553636 1404.585802,626.557293 1399.568110,620.970917 1395.587443,615.929121 1392.591046,610.887817 1390.283548,606.610212 1388.427571,601.877519 1386.878727,597.527500 1385.256932,590.185773 1384.440387,585.185288 1384.615605,580.830526 1382.371999,580.056701 1376.466280,585.884638 1365.896159,595.042753 1350.161759,606.718693 1345.966537,609.470997"/>
    <poly id="105187866" type="building.commercial" color="255,230,230" fill="1" layer="-1.00" shape="243.144237,623.699818 247.449411,624.070969 247.551975,622.889143 269.254988,624.774384 269.152420,625.956209 269.866556,626.018147 267.999249,648.170569 264.578097,647.868669 264.330365,650.756273 262.820436,650.623096 262.454010,654.882058 264.072742,655.023931 263.892859,657.910020 265.122575,659.173354 264.858395,659.501959 264.722426,661.619257 264.125746,663.168209 261.759460,662.987401 261.208335,669.309111 262.806459,669.440317 262.559477,672.361288 260.961353,672.230082 260.588893,676.522562 262.248326,676.663525 262.015485,679.305989 260.362837,679.164874 259.537276,688.697489 262.264379,688.925871 262.203342,689.839705 262.869479,689.880459 262.692407,692.588442 262.026270,692.547688 261.561958,693.337001 260.961779,693.817775 260.010364,694.072716 259.068294,694.138277 258.443567,701.418613 236.789372,699.576852 237.124581,695.440989 242.285800,695.848640 242.700909,690.731757 237.539685,690.324105 238.076285,683.657758 244.702927,684.333107 246.244579,666.750299 239.566868,666.220748 242.398940,632.874556 243.144237,623.699818"/>
    <poly id="1057952035" type="amenity.bicycle_parking" color="237,199,199" fill="1" layer="-1.00" shape="1501.517242,315.813858 1504.182982,317.869214 1498.863296,324.741160 1496.197557,322.685807 1501.517242,315.813858"/>
    <poly id="1059181628" type="landuse.construction" color="194,194,130" fill="1" layer="-3.00" shape="755.294386,222.735800 766.493731,223.566111 783.986020,225.002072 810.470431,227.228556 809.390811,240.349775 804.776157,299.662480 780.643070,319.817064 745.024213,298.776803 746.532125,279.893048 748.296476,257.887853 751.785214,258.166340 752.455118,249.827970 753.994396,230.520673 754.667622,230.572466 755.294386,222.735800"/>
    <poly id="1077922538" type="amenity.bicycle_parking" color="237,199,199" fill="1" layer="-1.00" shape="694.148807,529.894807 695.196708,517.197100 696.284762,517.284161 695.243891,529.992840 694.148807,529.894807"/>
    <poly id="1077922539" type="amenity.bicycle_parking" color="237,199,199" fill="1" layer="-1.00" shape="723.848332,536.656058 723.772399,537.514576 742.278986,539.128080 742.354923,538.269562 723.848332,536.656058"/>
    <poly id="1077922540" type="amenity.bicycle_parking" color="237,199,199" fill="1" layer="-1.00" shape="720.942335,540.593135 721.002120,539.924146 724.845205,540.272617 724.785420,540.941606 720.942335,540.593135"/>